
 Model Input Parameters:  ROMS/TOMS version 3.7  
                          Thursday - September 5, 2013 - 10:57:29 PM
 -----------------------------------------------------------------------------

 Idealised Ice Shelf Application

 Operating system : Linux
 CPU/hardware     : x86_64
 Compiler system  : ifort
 Compiler command : /opt/intel/composer_xe_2013.5.192/bin/intel64/ifort
 Compiler flags   : -heap-arrays -fp-model precise -ip -O3 -free -free

 SVN Root URL  : https:://myroms.org/svn/src
 SVN Revision  : Unversioned directory

 Local Root    : /home/bkgalton/data/hub/romsIceShelf
 Header Dir    : /home/bkgalton/data/hub/romsIceShelf/ROMS/Include
 Header file   : iceshelf2d.h
 Analytical Dir: /home/bkgalton/data/hub/romsIceShelf/ROMS/Functionals

 Resolution, Grid 01: 0005x0100x011,  Parallel Threads:  1,  Tiling: 001x001


 Physical Parameters, Grid: 01
 =============================

      86400  ntimes          Number of timesteps for 3-D equations.
    300.000  dt              Timestep size (s) for 3-D equations.
         30  ndtfast         Number of timesteps for 2-D equations between
                               each 3D timestep.
          1  ERstr           Starting ensemble/perturbation run number.
          1  ERend           Ending ensemble/perturbation run number.
          0  nrrec           Number of restart records to read from disk.
          T  LcycleRST       Switch to recycle time-records in restart file.
        864  nRST            Number of timesteps between the writing of data
                               into restart fields.
          1  ninfo           Number of timesteps between print of information
                               to standard output.
          T  ldefout         Switch to create a new output NetCDF file(s).
          1  nHIS            Number of timesteps between the writing fields
                               into history file.
 1.0000E+02  nl_tnu2(01)     NLM Horizontal, harmonic mixing coefficient
                               (m2/s) for tracer 01: temp
 1.0000E+02  nl_tnu2(02)     NLM Horizontal, harmonic mixing coefficient
                               (m2/s) for tracer 02: salt
 6.0000E+02  nl_visc2        NLM Horizontal, harmonic mixing coefficient
                               (m2/s) for momentum.
 5.0000E-05  Akt_bak(01)     Background vertical mixing coefficient (m2/s)
                               for tracer 01: temp
 5.0000E-05  Akt_bak(02)     Background vertical mixing coefficient (m2/s)
                               for tracer 02: salt
 1.0000E-03  Akv_bak         Background vertical mixing coefficient (m2/s)
                               for momentum.
 3.0000E-04  rdrg            Linear bottom drag coefficient (m/s).
 3.0000E-03  rdrg2           Quadratic bottom drag coefficient.
 2.0000E-02  Zob             Bottom roughness (m).
 1.0000E-01  Dcrit           Minimum depth for wetting and drying (m).
          1  Vtransform      S-coordinate transformation equation.
          1  Vstretching     S-coordinate stretching function.
 4.0000E+00  theta_s         S-coordinate surface control parameter.
 9.0000E-01  theta_b         S-coordinate bottom  control parameter.
     20.000  Tcline          S-coordinate surface/bottom layer width (m) used
                               in vertical coordinate stretching.
   1027.000  rho0            Mean density (kg/m3) for Boussinesq approximation.
      0.000  dstart          Time-stamp assigned to model initialization (days).
       0.00  time_ref        Reference time for units attribute (yyyymmdd.dd)
 0.0000E+00  Tnudg(01)       Nudging/relaxation time scale (days)
                               for tracer 01: temp
 0.0000E+00  Tnudg(02)       Nudging/relaxation time scale (days)
                               for tracer 02: salt
 0.0000E+00  Znudg           Nudging/relaxation time scale (days)
                               for free-surface.
 0.0000E+00  M2nudg          Nudging/relaxation time scale (days)
                               for 2D momentum.
 0.0000E+00  M3nudg          Nudging/relaxation time scale (days)
                               for 3D momentum.
 0.0000E+00  obcfac          Factor between passive and active
                               open boundary conditions.
          F  VolCons(1)      NLM western  edge boundary volume conservation.
          F  VolCons(2)      NLM southern edge boundary volume conservation.
          F  VolCons(3)      NLM eastern  edge boundary volume conservation.
          F  VolCons(4)      NLM northern edge boundary volume conservation.
     -0.278  T0              Background potential temperature (C) constant.
     34.649  S0              Background salinity (PSU) constant.
      1.000  gamma2          Slipperiness variable: free-slip (1.0) or 
                                                    no-slip (-1.0).
          T  Hout(idDraft)   Write out time-dependent ice draft.
          T  Hout(idFsur)    Write out free-surface.
          T  Hout(idUbar)    Write out 2D U-momentum component.
          T  Hout(idVbar)    Write out 2D V-momentum component.
          T  Hout(idUvel)    Write out 3D U-momentum component.
          T  Hout(idVvel)    Write out 3D V-momentum component.
          T  Hout(idWvel)    Write out W-momentum component.
          T  Hout(idOvel)    Write out omega vertical velocity.
          T  Hout(idTvar)    Write out tracer 01: temp
          T  Hout(idTvar)    Write out tracer 02: salt
          T  Hout(idTsur)    Write out surface net heat flux.
          T  Hout(idTsur)    Write out surface net salt flux.
          T  Hout(idDano)    Write out density anomaly.
          T  Hout(idVvis)    Write out vertical viscosity: AKv.
          T  Hout(idTdif)    Write out vertical diffusion: AKt(itemp).
          T  Hout(idSdif)    Write out vertical diffusion: AKt(isalt).

 Output/Input Files:

             Output Restart File:  ocean_rst.nc
             Output History File:  ocean_his.nc

 Tile partition information for Grid 01:  0005x0100x0011  tiling: 001x001

     tile     Istr     Iend     Jstr     Jend     Npts

        0        1        5        1      100     5500

 Tile minimum and maximum fractional coordinates for Grid 01:
   (interior points only)

     tile     Xmin     Xmax     Ymin     Ymax     grid

        0     0.50     5.50     0.50   101.50  RHO-points

        0     0.00     5.00     0.50   101.50    U-points

        0     0.50     5.50     0.00   101.00    V-points

 Lateral Boundary Conditions: NLM
 ============================

 Variable               Grid  West Edge    South Edge   East Edge    North Edge
 ---------              ----  ----------   ----------   ----------   ----------

 zeta                     1   Closed       Closed       Closed       Closed

 ubar                     1   Closed       Closed       Closed       Closed

 vbar                     1   Closed       Closed       Closed       Closed

 u                        1   Closed       Closed       Closed       Closed

 v                        1   Closed       Closed       Closed       Closed

 temp                     1   Closed       Closed       Closed       Closed

 salt                     1   Closed       Closed       Closed       Closed

 Activated C-preprocessing Options:

 WEDDELL             Idealised Ice Shelf Application
 ANA_BSFLUX          Analytical kinematic bottom salinity flux.
 ANA_BTFLUX          Analytical kinematic bottom temperature flux.
 ANA_GRID            Analytical grid set-up.
 ANA_INITIAL         Analytical initial conditions.
 ANA_MASK            Analytical Land/Sea Masking.
 ANA_SMFLUX          Analytical kinematic surface momentum flux.
 ANA_SSFLUX          Analytical kinematic surface salinity flux.
 ANA_STFLUX          Analytical kinematic surface temperature flux.
 ASSUMED_SHAPE       Using assumed-shape arrays.
 CURVGRID            Orthogonal curvilinear grid.
 DJ_GRADPS           Parabolic Splines density Jacobian (Shchepetkin, 2002).
 DOUBLE_PRECISION    Double precision arithmetic.
 ICESHELF            Include Ice Shelf Cavities.
 LMD_CONVEC          LMD convective mixing due to shear instability.
 LMD_MIXING          Large/McWilliams/Doney interior mixing.
 MASKING             Land/Sea masking.
 MIX_GEO_TS          Mixing of tracers along geopotential surfaces.
 MIX_GEO_UV          Mixing of momentum along geopotential surfaces.
 NONLINEAR           Nonlinear Model.
 NONLIN_EOS          Nonlinear Equation of State for seawater.
 POWER_LAW           Power-law shape time-averaging barotropic filter.
 PROFILE             Time profiling activated .
 !RST_SINGLE         Double precision fields in restart NetCDF file.
 SALINITY            Using salinity.
 SOLVE3D             Solving 3D Primitive Equations.
 SPLINES             Conservative parabolic spline reconstruction.
 TS_C4HADVECTION     Fourth-order centered horizontal advection of tracers.
 TS_C4VADVECTION     Fourth-order centered vertical advection of tracers.
 TS_DIF2             Harmonic mixing of tracers.
 UV_ADV              Advection of momentum.
 UV_U3HADVECTION     Third-order upstream horizontal advection of 3D momentum.
 UV_C4VADVECTION     Fourth-order centered vertical advection of momentum.
 UV_QDRAG            Quadratic bottom stress.
 UV_VIS2             Harmonic mixing of momentum.
 VAR_RHO_2D          Variable density barotropic mode.
 WET_DRY             Wetting and drying activated.

 Process Information:

 Thread #  0 (pid=   31597) is active.

 INITIAL: Configuring and initializing forward nonlinear model ...
 *******
   20.0000000000000     
   20.0000000000000     
   20.0000000000000     
   20.0000000000000     
   20.0000000000000     
   20.0000000000000     
   20.0000000000000     
   30.0000000000000     
   30.0000000000000     
   30.0000000000000     
   30.0000000000000     
   30.0000000000000     
   30.0000000000000     
   30.0000000000000     
   40.0000000000000     
   40.0000000000000     
   40.0000000000000     
   40.0000000000000     
   40.0000000000000     
   40.0000000000000     
   40.0000000000000     
   50.0000000000000     
   50.0000000000000     
   50.0000000000000     
   50.0000000000000     
   50.0000000000000     
   50.0000000000000     
   50.0000000000000     
   60.0000000000000     
   60.0000000000000     
   60.0000000000000     
   60.0000000000000     
   60.0000000000000     
   60.0000000000000     
   60.0000000000000     
   70.0000000000000     
   70.0000000000000     
   70.0000000000000     
   70.0000000000000     
   70.0000000000000     
   70.0000000000000     
   70.0000000000000     
   80.0000000000000     
   80.0000000000000     
   80.0000000000000     
   80.0000000000000     
   80.0000000000000     
   80.0000000000000     
   80.0000000000000     
   90.0000000000000     
   90.0000000000000     
   90.0000000000000     
   90.0000000000000     
   90.0000000000000     
   90.0000000000000     
   90.0000000000000     
   100.000000000000     
   100.000000000000     
   100.000000000000     
   100.000000000000     
   100.000000000000     
   100.000000000000     
   100.000000000000     
   110.000000000000     
   110.000000000000     
   110.000000000000     
   110.000000000000     
   110.000000000000     
   110.000000000000     
   110.000000000000     
   120.000000000000     
   120.000000000000     
   120.000000000000     
   120.000000000000     
   120.000000000000     
   120.000000000000     
   120.000000000000     
   130.000000000000     
   130.000000000000     
   130.000000000000     
   130.000000000000     
   130.000000000000     
   130.000000000000     
   130.000000000000     
   140.000000000000     
   140.000000000000     
   140.000000000000     
   140.000000000000     
   140.000000000000     
   140.000000000000     
   140.000000000000     
   150.000000000000     
   150.000000000000     
   150.000000000000     
   150.000000000000     
   150.000000000000     
   150.000000000000     
   150.000000000000     
   160.000000000000     
   160.000000000000     
   160.000000000000     
   160.000000000000     
   160.000000000000     
   160.000000000000     
   160.000000000000     
   170.000000000000     
   170.000000000000     
   170.000000000000     
   170.000000000000     
   170.000000000000     
   170.000000000000     
   170.000000000000     
   180.000000000000     
   180.000000000000     
   180.000000000000     
   180.000000000000     
   180.000000000000     
   180.000000000000     
   180.000000000000     
   190.000000000000     
   190.000000000000     
   190.000000000000     
   190.000000000000     
   190.000000000000     
   190.000000000000     
   190.000000000000     
   200.000000000000     
   200.000000000000     
   200.000000000000     
   200.000000000000     
   200.000000000000     
   200.000000000000     
   200.000000000000     
   210.000000000000     
   210.000000000000     
   210.000000000000     
   210.000000000000     
   210.000000000000     
   210.000000000000     
   210.000000000000     
   220.000000000000     
   220.000000000000     
   220.000000000000     
   220.000000000000     
   220.000000000000     
   220.000000000000     
   220.000000000000     
   230.000000000000     
   230.000000000000     
   230.000000000000     
   230.000000000000     
   230.000000000000     
   230.000000000000     
   230.000000000000     
   240.000000000000     
   240.000000000000     
   240.000000000000     
   240.000000000000     
   240.000000000000     
   240.000000000000     
   240.000000000000     
   250.000000000000     
   250.000000000000     
   250.000000000000     
   250.000000000000     
   250.000000000000     
   250.000000000000     
   250.000000000000     
   260.000000000000     
   260.000000000000     
   260.000000000000     
   260.000000000000     
   260.000000000000     
   260.000000000000     
   260.000000000000     
   270.000000000000     
   270.000000000000     
   270.000000000000     
   270.000000000000     
   270.000000000000     
   270.000000000000     
   270.000000000000     
   280.000000000000     
   280.000000000000     
   280.000000000000     
   280.000000000000     
   280.000000000000     
   280.000000000000     
   280.000000000000     
   290.000000000000     
   290.000000000000     
   290.000000000000     
   290.000000000000     
   290.000000000000     
   290.000000000000     
   290.000000000000     
   300.000000000000     
   300.000000000000     
   300.000000000000     
   300.000000000000     
   300.000000000000     
   300.000000000000     
   300.000000000000     
   310.000000000000     
   310.000000000000     
   310.000000000000     
   310.000000000000     
   310.000000000000     
   310.000000000000     
   310.000000000000     
   320.000000000000     
   320.000000000000     
   320.000000000000     
   320.000000000000     
   320.000000000000     
   320.000000000000     
   320.000000000000     
   330.000000000000     
   330.000000000000     
   330.000000000000     
   330.000000000000     
   330.000000000000     
   330.000000000000     
   330.000000000000     
   340.000000000000     
   340.000000000000     
   340.000000000000     
   340.000000000000     
   340.000000000000     
   340.000000000000     
   340.000000000000     
   350.000000000000     
   350.000000000000     
   350.000000000000     
   350.000000000000     
   350.000000000000     
   350.000000000000     
   350.000000000000     
   360.000000000000     
   360.000000000000     
   360.000000000000     
   360.000000000000     
   360.000000000000     
   360.000000000000     
   360.000000000000     
   370.000000000000     
   370.000000000000     
   370.000000000000     
   370.000000000000     
   370.000000000000     
   370.000000000000     
   370.000000000000     
   380.000000000000     
   380.000000000000     
   380.000000000000     
   380.000000000000     
   380.000000000000     
   380.000000000000     
   380.000000000000     
   390.000000000000     
   390.000000000000     
   390.000000000000     
   390.000000000000     
   390.000000000000     
   390.000000000000     
   390.000000000000     
   400.000000000000     
   400.000000000000     
   400.000000000000     
   400.000000000000     
   400.000000000000     
   400.000000000000     
   400.000000000000     
   410.000000000000     
   410.000000000000     
   410.000000000000     
   410.000000000000     
   410.000000000000     
   410.000000000000     
   410.000000000000     
   420.000000000000     
   420.000000000000     
   420.000000000000     
   420.000000000000     
   420.000000000000     
   420.000000000000     
   420.000000000000     
   430.000000000000     
   430.000000000000     
   430.000000000000     
   430.000000000000     
   430.000000000000     
   430.000000000000     
   430.000000000000     
   440.000000000000     
   440.000000000000     
   440.000000000000     
   440.000000000000     
   440.000000000000     
   440.000000000000     
   440.000000000000     
   450.000000000000     
   450.000000000000     
   450.000000000000     
   450.000000000000     
   450.000000000000     
   450.000000000000     
   450.000000000000     
   460.000000000000     
   460.000000000000     
   460.000000000000     
   460.000000000000     
   460.000000000000     
   460.000000000000     
   460.000000000000     
   470.000000000000     
   470.000000000000     
   470.000000000000     
   470.000000000000     
   470.000000000000     
   470.000000000000     
   470.000000000000     
   480.000000000000     
   480.000000000000     
   480.000000000000     
   480.000000000000     
   480.000000000000     
   480.000000000000     
   480.000000000000     
   490.000000000000     
   490.000000000000     
   490.000000000000     
   490.000000000000     
   490.000000000000     
   490.000000000000     
   490.000000000000     
   500.000000000000     
   500.000000000000     
   500.000000000000     
   500.000000000000     
   500.000000000000     
   500.000000000000     
   500.000000000000     
   510.000000000000     
   510.000000000000     
   510.000000000000     
   510.000000000000     
   510.000000000000     
   510.000000000000     
   510.000000000000     
   520.000000000000     
   520.000000000000     
   520.000000000000     
   520.000000000000     
   520.000000000000     
   520.000000000000     
   520.000000000000     
   530.000000000000     
   530.000000000000     
   530.000000000000     
   530.000000000000     
   530.000000000000     
   530.000000000000     
   530.000000000000     
   540.000000000000     
   540.000000000000     
   540.000000000000     
   540.000000000000     
   540.000000000000     
   540.000000000000     
   540.000000000000     
   550.000000000000     
   550.000000000000     
   550.000000000000     
   550.000000000000     
   550.000000000000     
   550.000000000000     
   550.000000000000     
   560.000000000000     
   560.000000000000     
   560.000000000000     
   560.000000000000     
   560.000000000000     
   560.000000000000     
   560.000000000000     
   570.000000000000     
   570.000000000000     
   570.000000000000     
   570.000000000000     
   570.000000000000     
   570.000000000000     
   570.000000000000     
   580.000000000000     
   580.000000000000     
   580.000000000000     
   580.000000000000     
   580.000000000000     
   580.000000000000     
   580.000000000000     
   590.000000000000     
   590.000000000000     
   590.000000000000     
   590.000000000000     
   590.000000000000     
   590.000000000000     
   590.000000000000     
   600.000000000000     
   600.000000000000     
   600.000000000000     
   600.000000000000     
   600.000000000000     
   600.000000000000     
   600.000000000000     
   610.000000000000     
   610.000000000000     
   610.000000000000     
   610.000000000000     
   610.000000000000     
   610.000000000000     
   610.000000000000     
   620.000000000000     
   620.000000000000     
   620.000000000000     
   620.000000000000     
   620.000000000000     
   620.000000000000     
   620.000000000000     
   630.000000000000     
   630.000000000000     
   630.000000000000     
   630.000000000000     
   630.000000000000     
   630.000000000000     
   630.000000000000     
   640.000000000000     
   640.000000000000     
   640.000000000000     
   640.000000000000     
   640.000000000000     
   640.000000000000     
   640.000000000000     
   650.000000000000     
   650.000000000000     
   650.000000000000     
   650.000000000000     
   650.000000000000     
   650.000000000000     
   650.000000000000     
   660.000000000000     
   660.000000000000     
   660.000000000000     
   660.000000000000     
   660.000000000000     
   660.000000000000     
   660.000000000000     
   670.000000000000     
   670.000000000000     
   670.000000000000     
   670.000000000000     
   670.000000000000     
   670.000000000000     
   670.000000000000     
   680.000000000000     
   680.000000000000     
   680.000000000000     
   680.000000000000     
   680.000000000000     
   680.000000000000     
   680.000000000000     
   690.000000000000     
   690.000000000000     
   690.000000000000     
   690.000000000000     
   690.000000000000     
   690.000000000000     
   690.000000000000     
   700.000000000000     
   700.000000000000     
   700.000000000000     
   700.000000000000     
   700.000000000000     
   700.000000000000     
   700.000000000000     
   710.000000000000     
   710.000000000000     
   710.000000000000     
   710.000000000000     
   710.000000000000     
   710.000000000000     
   710.000000000000     
   720.000000000000     
   720.000000000000     
   720.000000000000     
   720.000000000000     
   720.000000000000     
   720.000000000000     
   720.000000000000     
   730.000000000000     
   730.000000000000     
   730.000000000000     
   730.000000000000     
   730.000000000000     
   730.000000000000     
   730.000000000000     
   740.000000000000     
   740.000000000000     
   740.000000000000     
   740.000000000000     
   740.000000000000     
   740.000000000000     
   740.000000000000     
   750.000000000000     
   750.000000000000     
   750.000000000000     
   750.000000000000     
   750.000000000000     
   750.000000000000     
   750.000000000000     
   760.000000000000     
   760.000000000000     
   760.000000000000     
   760.000000000000     
   760.000000000000     
   760.000000000000     
   760.000000000000     
   770.000000000000     
   770.000000000000     
   770.000000000000     
   770.000000000000     
   770.000000000000     
   770.000000000000     
   770.000000000000     
   780.000000000000     
   780.000000000000     
   780.000000000000     
   780.000000000000     
   780.000000000000     
   780.000000000000     
   780.000000000000     
   790.000000000000     
   790.000000000000     
   790.000000000000     
   790.000000000000     
   790.000000000000     
   790.000000000000     
   790.000000000000     
   800.000000000000     
   800.000000000000     
   800.000000000000     
   800.000000000000     
   800.000000000000     
   800.000000000000     
   800.000000000000     
   810.000000000000     
   810.000000000000     
   810.000000000000     
   810.000000000000     
   810.000000000000     
   810.000000000000     
   810.000000000000     
   820.000000000000     
   820.000000000000     
   820.000000000000     
   820.000000000000     
   820.000000000000     
   820.000000000000     
   820.000000000000     
   830.000000000000     
   830.000000000000     
   830.000000000000     
   830.000000000000     
   830.000000000000     
   830.000000000000     
   830.000000000000     
   840.000000000000     
   840.000000000000     
   840.000000000000     
   840.000000000000     
   840.000000000000     
   840.000000000000     
   840.000000000000     
   850.000000000000     
   850.000000000000     
   850.000000000000     
   850.000000000000     
   850.000000000000     
   850.000000000000     
   850.000000000000     
   860.000000000000     
   860.000000000000     
   860.000000000000     
   860.000000000000     
   860.000000000000     
   860.000000000000     
   860.000000000000     
   870.000000000000     
   870.000000000000     
   870.000000000000     
   870.000000000000     
   870.000000000000     
   870.000000000000     
   870.000000000000     
   880.000000000000     
   880.000000000000     
   880.000000000000     
   880.000000000000     
   880.000000000000     
   880.000000000000     
   880.000000000000     
   890.000000000000     
   890.000000000000     
   890.000000000000     
   890.000000000000     
   890.000000000000     
   890.000000000000     
   890.000000000000     
   900.000000000000     
   900.000000000000     
   900.000000000000     
   900.000000000000     
   900.000000000000     
   900.000000000000     
   900.000000000000     
   910.000000000000     
   910.000000000000     
   910.000000000000     
   910.000000000000     
   910.000000000000     
   910.000000000000     
   910.000000000000     
   920.000000000000     
   920.000000000000     
   920.000000000000     
   920.000000000000     
   920.000000000000     
   920.000000000000     
   920.000000000000     
   930.000000000000     
   930.000000000000     
   930.000000000000     
   930.000000000000     
   930.000000000000     
   930.000000000000     
   930.000000000000     
   940.000000000000     
   940.000000000000     
   940.000000000000     
   940.000000000000     
   940.000000000000     
   940.000000000000     
   940.000000000000     
   950.000000000000     
   950.000000000000     
   950.000000000000     
   950.000000000000     
   950.000000000000     
   950.000000000000     
   950.000000000000     
   960.000000000000     
   960.000000000000     
   960.000000000000     
   960.000000000000     
   960.000000000000     
   960.000000000000     
   960.000000000000     
   970.000000000000     
   970.000000000000     
   970.000000000000     
   970.000000000000     
   970.000000000000     
   970.000000000000     
   970.000000000000     
   980.000000000000     
   980.000000000000     
   980.000000000000     
   980.000000000000     
   980.000000000000     
   980.000000000000     
   980.000000000000     
   990.000000000000     
   990.000000000000     
   990.000000000000     
   990.000000000000     
   990.000000000000     
   990.000000000000     
   990.000000000000     
   1000.00000000000     
   1000.00000000000     
   1000.00000000000     
   1000.00000000000     
   1000.00000000000     
   1000.00000000000     
   1000.00000000000     
   1010.00000000000     
   1010.00000000000     
   1010.00000000000     
   1010.00000000000     
   1010.00000000000     
   1010.00000000000     
   1010.00000000000     
   1020.00000000000     
   1020.00000000000     
   1020.00000000000     
   1020.00000000000     
   1020.00000000000     
   1020.00000000000     
   1020.00000000000     
   1030.00000000000     
   1030.00000000000     
   1030.00000000000     
   1030.00000000000     
   1030.00000000000     
   1030.00000000000     
   1030.00000000000     

 Vertical S-coordinate System, Grid 01:

 level   S-coord     Cs-curve   Z   at hmin       at hc    half way     at hmax

    11   0.0000000   0.0000000        0.000       0.000       0.000       0.000
    10  -0.0909091  -0.0186637       -1.818      -1.818     -11.243     -20.669
     9  -0.1818182  -0.0540164       -3.636      -3.636     -30.915     -58.193
     8  -0.2727273  -0.1184242       -5.455      -5.455     -65.259    -125.063
     7  -0.3636364  -0.2253737       -7.273      -7.273    -121.086    -234.900
     6  -0.4545455  -0.3770418       -9.091      -9.091    -199.497    -389.903
     5  -0.5454545  -0.5499790      -10.909     -10.909    -288.648    -566.388
     4  -0.6363636  -0.7052596      -12.727     -12.727    -368.883    -725.039
     3  -0.7272727  -0.8199172      -14.545     -14.545    -428.604    -842.662
     2  -0.8181818  -0.8971591      -16.364     -16.364    -469.429    -922.494
     1  -0.9090909  -0.9521878      -18.182     -18.182    -499.037    -979.891
     0  -1.0000000  -1.0000000      -20.000     -20.000    -525.000   -1030.000

 Time Splitting Weights for Grid 01:    ndtfast =  30    nfast =  42
 ==================================

    Primary            Secondary            Accumulated to Current Step

  1-0.0008094437383769 0.0333333333333333-0.0008094437383769 0.0333333333333333
  2-0.0014053566728197 0.0333603147912792-0.0022148004111966 0.0666936481246126
  3-0.0017877524645903 0.0334071600137066-0.0040025528757869 0.1001008081383191
  4-0.0019566842408176 0.0334667517625262-0.0059592371166046 0.1335675599008453
  5-0.0019122901320372 0.0335319745705535-0.0078715272486418 0.1670995344713988
  6-0.0016548570247459 0.0335957175749547-0.0095263842733877 0.2006952520463536
  7-0.0011849025289723 0.0336508794757796-0.0107112868023600 0.2343461315221331
  8-0.0005032751608631 0.0336903762267453-0.0112145619632232 0.2680365077488784
  9 0.0003887272597151 0.0337071520654408-0.0108258347035081 0.3017436598143192
 10 0.0014892209965583 0.0336941944901169-0.0093366137069498 0.3354378543044362
 11 0.0027955815694920 0.0336445537902317-0.0065410321374578 0.3690824080946679
 12 0.0043042707117221 0.0335513677379153-0.0022367614257356 0.4026337758325831
 13 0.0060106451121704 0.0334078920475245 0.0037738836864348 0.4360416678801076
 14 0.0079087469427945 0.0332075372104522 0.0116826306292293 0.4692492050905598
 15 0.0099910761708920 0.0329439123123590 0.0216737068001213 0.5021931174029188
 16 0.0122483446563884 0.0326108764399960 0.0339220514565097 0.5348039938429148
 17 0.0146692120341107 0.0322025982847830 0.0485912634906204 0.5670065921276978
 18 0.0172400033810439 0.0317136245503127 0.0658312668716643 0.5987202166780105
 19 0.0199444086685725 0.0311389577709445 0.0857756755402368 0.6298591744489550
 20 0.0227631639997064 0.0304741441486588 0.1085388395399432 0.6603333185976138
 21 0.0256737146312911 0.0297153720153352 0.1342125541712342 0.6900486906129490
 22 0.0286498597812016 0.0288595815276255 0.1628624139524359 0.7189082721405746
 23 0.0316613792205220 0.0279045862015855 0.1945237931729578 0.7468128583421600
 24 0.0346736416507075 0.0268492068942347 0.2291974348236653 0.7736620652363948
 25 0.0376471948657328 0.0256934188392112 0.2668446296893981 0.7993554840756060
 26 0.0405373376992232 0.0244385123436867 0.3073819673886213 0.8237939964192927
 27 0.0432936737565710 0.0230872677537126 0.3506756411451924 0.8468812641730054
 28 0.0458596469320356 0.0216441452951603 0.3965352880772280 0.8685254094681656
 29 0.0481720587108284 0.0201154903974257 0.4447073467880565 0.8886408998655914
 30 0.0501605672561820 0.0185097551070648 0.4948679140442384 0.9071506549726561
 31 0.0517471682814030 0.0168377361985254 0.5466150823256415 0.9239883911711815
 32 0.0528456577069106 0.0151128305891453 0.5994607400325521 0.9391012217603267
 33 0.0533610761022577 0.0133513086655816 0.6528218161348098 0.9524525304259084
 34 0.0531891349131379 0.0115726061288397 0.7060109510479478 0.9640251365547481
 35 0.0522156244733761 0.0097996349650684 0.7582265755213239 0.9738247715198165
 36 0.0503158038019030 0.0080591141492892 0.8085423793232269 0.9818838856691057
 37 0.0473537721847153 0.0063819206892258 0.8558961515079423 0.9882658063583315
 38 0.0431818225418188 0.0048034616164019 0.8990779740497611 0.9930692679747334
 39 0.0376397765791564 0.0033640675316746 0.9367177506289175 0.9964333355064080
 40 0.0305543017255206 0.0021094083123694 0.9672720523544381 0.9985427438187774
 41 0.0217382098544504 0.0010909315881854 0.9890102622088885 0.9996336754069628
 42 0.0109897377911118 0.0003663245930371 1.0000000000000004 0.9999999999999999

 ndtfast, nfast =   30  42   nfast/ndtfast =  1.40000

 Centers of gravity and integrals (values must be 1, 1, approx 1/2, 1, 1):

    1.000000000000 1.047601458608 0.523800729304 1.000000000000 1.000000000000

 Power filter parameters, Fgamma, gamma =  0.28400   0.18933

 Metrics information for Grid 01:
 ===============================

 Minimum X-grid spacing, DXmin =  4.09320000E+00 km
 Maximum X-grid spacing, DXmax =  4.09320000E+00 km
 Minimum Y-grid spacing, DYmin =  5.00000000E+00 km
 Maximum Y-grid spacing, DYmax =  5.00000000E+00 km
 Minimum Z-grid spacing, DZmin =  1.81818182E+00 m
 Maximum Z-grid spacing, DZmax =  1.46714779E+02 m

 Minimum barotropic Courant Number =  2.48211752E-01
 Maximum barotropic Courant Number =  3.17373512E-01
 Maximum Coriolis   Courant Number =  0.00000000E+00


 Basin information for Grid 01:

 Maximum grid stiffness ratios:  rx0 =   7.874016E-03 (Beckmann and Haidvogel)
                                 rx1 =   8.354649E+00 (Haney)

 Initial basin volumes: TotVolume =  2.2554710443E+12 m3
                        MinVolume =  6.5158472781E+07 m3
                        MaxVolume =  2.9610552376E+09 m3
                          Max/Min =  4.5443901787E+01

 NL ROMS/TOMS: started time-stepping: (Grid: 01 TimeSteps: 00000001 - 00086400)


   STEP   Day HH:MM:SS  KINETIC_ENRG   POTEN_ENRG    TOTAL_ENRG    NET_VOLUME
          C => (i,j,k)       Cu            Cv            Cw         Max Speed

      0     0 00:00:00  0.000000E+00  5.225341E+03  5.225341E+03  2.378267E+12
            (0,000,00)  0.000000E+00  0.000000E+00  0.000000E+00  0.000000E+00
      DEF_HIS   - creating history file, Grid 01: ocean_his.nc
      WRT_HIS   - wrote history  fields (Index=1,1) into time record = 0000001
      1     0 00:05:00  4.353776E-08  7.270477E+04  7.270477E+04  3.834460E+11
            (1,063,11)  0.000000E+00  3.443356E-05  1.189179E-13  5.745192E-04
      WRT_HIS   - wrote history  fields (Index=1,2) into time record = 0000002
      2     0 00:10:00  1.044545E-07  7.270476E+04  7.270476E+04  3.834460E+11
            (2,061,11)  1.116818E-11  1.207789E-05  9.019148E-04  6.737096E-04
      WRT_HIS   - wrote history  fields (Index=1,1) into time record = 0000003
      3     0 00:15:00  1.339748E-07  7.270474E+04  7.270474E+04  3.834460E+11
            (5,061,11)  1.900151E-11  7.023553E-06  7.135607E-04  5.672520E-04
      WRT_HIS   - wrote history  fields (Index=1,2) into time record = 0000004
      4     0 00:20:00  1.429998E-07  7.270473E+04  7.270473E+04  3.834460E+11
            (5,061,11)  2.280967E-11  3.303971E-06  3.915794E-04  4.748205E-04
      WRT_HIS   - wrote history  fields (Index=1,1) into time record = 0000005
      5     0 00:25:00  1.409577E-07  7.270471E+04  7.270471E+04  3.834460E+11
            (5,061,11)  2.437564E-11  1.166960E-06  1.623788E-04  4.180057E-04
      WRT_HIS   - wrote history  fields (Index=1,2) into time record = 0000006
      6     0 00:30:00  1.271308E-07  7.270470E+04  7.270470E+04  3.834460E+11
            (3,071,11)  1.215372E-16  9.188029E-06  1.263969E-04  3.592500E-04
      WRT_HIS   - wrote history  fields (Index=1,1) into time record = 0000007
      7     0 00:35:00  1.034301E-07  7.270468E+04  7.270468E+04  3.834460E+11
            (2,074,11)  4.406060E-17  5.755679E-06  1.011913E-04  3.095236E-04
      WRT_HIS   - wrote history  fields (Index=1,2) into time record = 0000008
      8     0 00:40:00  6.478021E-08  7.270467E+04  7.270467E+04  3.834460E+11
            (5,079,11)  9.829546E-18  4.782264E-06  8.774077E-05  2.494594E-04
      WRT_HIS   - wrote history  fields (Index=1,1) into time record = 0000009
      9     0 00:45:00  1.657689E-08  7.270467E+04  7.270467E+04  3.834460E+11
            (5,098,11)  3.083373E-20  3.645661E-06  8.050557E-05  1.347733E-04
      WRT_HIS   - wrote history  fields (Index=1,2) into time record = 0000010
     10     0 00:50:00  9.315060E-09  7.270467E+04  7.270467E+04  3.834460E+11
            (3,100,11)  2.273484E-21  1.419528E-07  7.142923E-05  7.773779E-05
      WRT_HIS   - wrote history  fields (Index=1,1) into time record = 0000011
     11     0 00:55:00  6.971532E-08  7.270468E+04  7.270468E+04  3.834460E+11
            (1,094,11)  6.177957E-20  1.169474E-05  2.035509E-05  2.278984E-04
      WRT_HIS   - wrote history  fields (Index=1,2) into time record = 0000012
     12     0 01:00:00  1.266720E-07  7.270469E+04  7.270469E+04  3.834460E+11
            (5,100,11)  1.915666E-20  9.956410E-07  1.047174E-04  3.079291E-04
      WRT_HIS   - wrote history  fields (Index=1,1) into time record = 0000013
     13     0 01:05:00  1.425957E-07  7.270470E+04  7.270470E+04  3.834460E+11
            (5,099,11)  1.291448E-20  1.594126E-06  9.759248E-05  3.350366E-04
      WRT_HIS   - wrote history  fields (Index=1,2) into time record = 0000014
     14     0 01:10:00  1.363182E-07  7.270472E+04  7.270472E+04  3.834460E+11
            (5,077,11)  5.502534E-17  2.109184E-05  6.441227E-05  3.567160E-04
      WRT_HIS   - wrote history  fields (Index=1,1) into time record = 0000015
     15     0 01:15:00  1.205665E-07  7.270473E+04  7.270473E+04  3.834460E+11
            (2,071,11)  1.471976E-15  2.114155E-05  7.651928E-05  3.818616E-04
      WRT_HIS   - wrote history  fields (Index=1,2) into time record = 0000016
     16     0 01:20:00  9.698990E-08  7.270475E+04  7.270475E+04  3.834460E+11
            (4,061,11)  5.547202E-11  4.172628E-06  1.413683E-04  4.017434E-04
      WRT_HIS   - wrote history  fields (Index=1,1) into time record = 0000017
     17     0 01:25:00  6.786951E-08  7.270476E+04  7.270476E+04  3.834460E+11
            (4,061,11)  5.892071E-11  6.875711E-06  2.555556E-04  4.376993E-04
      WRT_HIS   - wrote history  fields (Index=1,2) into time record = 0000018
     18     0 01:30:00  3.392560E-08  7.270477E+04  7.270477E+04  3.834460E+11
            (2,061,11)  5.968819E-11  8.570608E-06  4.130702E-04  4.186543E-04
      WRT_HIS   - wrote history  fields (Index=1,1) into time record = 0000019
     19     0 01:35:00  9.867210E-09  7.270477E+04  7.270477E+04  3.834460E+11
            (4,061,11)  6.335511E-11  5.566069E-06  5.067125E-04  2.112213E-04
      WRT_HIS   - wrote history  fields (Index=1,2) into time record = 0000020
     20     0 01:40:00  3.259950E-08  7.270477E+04  7.270477E+04  3.834460E+11
            (5,061,11)  5.810681E-11  3.732437E-06  3.156943E-04  2.525235E-04
      WRT_HIS   - wrote history  fields (Index=1,1) into time record = 0000021
     21     0 01:45:00  9.797960E-08  7.270475E+04  7.270475E+04  3.834460E+11
            (4,061,11)  8.180953E-11  1.236690E-05  2.491524E-04  5.753552E-04
      WRT_HIS   - wrote history  fields (Index=1,2) into time record = 0000022
     22     0 01:50:00  1.403678E-07  7.270474E+04  7.270474E+04  3.834460E+11
            (5,061,11)  8.726079E-11  1.216609E-05  7.603069E-04  6.144138E-04
      WRT_HIS   - wrote history  fields (Index=1,1) into time record = 0000023
     23     0 01:55:00  1.377805E-07  7.270472E+04  7.270472E+04  3.834460E+11
            (5,061,11)  1.044791E-10  6.233017E-06  7.278781E-04  4.730074E-04
      WRT_HIS   - wrote history  fields (Index=1,2) into time record = 0000024
     24     0 02:00:00  1.164057E-07  7.270470E+04  7.270470E+04  3.834460E+11
            (5,061,11)  1.177846E-10  1.503059E-06  3.527528E-04  3.694962E-04
      WRT_HIS   - wrote history  fields (Index=1,1) into time record = 0000025
     25     0 02:05:00  9.118356E-08  7.270469E+04  7.270469E+04  3.834460E+11
            (3,066,11)  6.964939E-16  1.924319E-06  1.298151E-04  3.027710E-04
      WRT_HIS   - wrote history  fields (Index=1,2) into time record = 0000026
     26     0 02:10:00  6.453591E-08  7.270468E+04  7.270468E+04  3.834460E+11
            (5,069,11)  4.109199E-16  7.331739E-07  1.084752E-04  2.405423E-04
      WRT_HIS   - wrote history  fields (Index=1,1) into time record = 0000027
     27     0 02:15:00  3.913495E-08  7.270467E+04  7.270467E+04  3.834460E+11
            (4,061,11)  1.837011E-10  1.074294E-06  8.802800E-05  1.846284E-04
      WRT_HIS   - wrote history  fields (Index=1,2) into time record = 0000028
     28     0 02:20:00  1.949554E-08  7.270467E+04  7.270467E+04  3.834460E+11
            (4,061,11)  2.036106E-10  8.960720E-07  7.896511E-05  1.149716E-04
      WRT_HIS   - wrote history  fields (Index=1,1) into time record = 0000029
     29     0 02:25:00  2.139844E-08  7.270468E+04  7.270468E+04  3.834460E+11
            (4,061,11)  2.263073E-10  9.047602E-07  6.467534E-05  1.442064E-04
      WRT_HIS   - wrote history  fields (Index=1,2) into time record = 0000030
     30     0 02:30:00  6.392173E-08  7.270468E+04  7.270468E+04  3.834460E+11
            (4,061,11)  2.518422E-10  1.180561E-06  6.284551E-05  2.025485E-04
      WRT_HIS   - wrote history  fields (Index=1,1) into time record = 0000031
     31     0 02:35:00  1.231621E-07  7.270470E+04  7.270470E+04  3.834460E+11
            (4,061,11)  2.802931E-10  1.507352E-06  7.763959E-05  2.821299E-04
      WRT_HIS   - wrote history  fields (Index=1,2) into time record = 0000032
     32     0 02:40:00  1.446483E-07  7.270471E+04  7.270471E+04  3.834460E+11
            (4,061,11)  3.119727E-10  1.637783E-06  9.543445E-05  3.050314E-04
      WRT_HIS   - wrote history  fields (Index=1,1) into time record = 0000033
     33     0 02:45:00  1.233660E-07  7.270473E+04  7.270473E+04  3.834460E+11
            (4,061,11)  3.474436E-10  1.718077E-06  1.011875E-04  2.957391E-04
      WRT_HIS   - wrote history  fields (Index=1,2) into time record = 0000034
     34     0 02:50:00  9.097359E-08  7.270474E+04  7.270474E+04  3.834460E+11
            (4,061,11)  3.871490E-10  2.113893E-06  1.040008E-04  2.923615E-04
      WRT_HIS   - wrote history  fields (Index=1,1) into time record = 0000035
     35     0 02:55:00  6.256287E-08  7.270475E+04  7.270475E+04  3.834460E+11
            (4,061,11)  4.313479E-10  2.991234E-06  1.260203E-04  2.879562E-04
      WRT_HIS   - wrote history  fields (Index=1,2) into time record = 0000036
     36     0 03:00:00  3.962889E-08  7.270476E+04  7.270476E+04  3.834460E+11
            (4,061,11)  4.802278E-10  4.194852E-06  1.768123E-04  2.823429E-04
      WRT_HIS   - wrote history  fields (Index=1,1) into time record = 0000037
     37     0 03:05:00  2.429148E-08  7.270477E+04  7.270477E+04  3.834460E+11
            (4,061,11)  5.342269E-10  5.013564E-06  2.463291E-04  2.623441E-04
      WRT_HIS   - wrote history  fields (Index=1,2) into time record = 0000038
     38     0 03:10:00  2.182377E-08  7.270477E+04  7.270477E+04  3.834460E+11
            (4,061,11)  5.943259E-10  3.954239E-06  2.913069E-04  1.663856E-04
      WRT_HIS   - wrote history  fields (Index=1,1) into time record = 0000039
     39     0 03:15:00  4.339853E-08  7.270476E+04  7.270476E+04  3.834460E+11
            (4,061,11)  6.626974E-10  3.538106E-07  2.224136E-04  2.220444E-04
      WRT_HIS   - wrote history  fields (Index=1,2) into time record = 0000040
     40     0 03:20:00  9.163534E-08  7.270475E+04  7.270475E+04  3.834460E+11
            (3,065,11)  9.247491E-15  2.437383E-05  8.427367E-05  4.062372E-04
      WRT_HIS   - wrote history  fields (Index=1,1) into time record = 0000041
     41     0 03:25:00  1.339101E-07  7.270473E+04  7.270473E+04  3.834460E+11
            (5,061,11)  6.486841E-10  1.122625E-05  4.281617E-04  5.698170E-04
      WRT_HIS   - wrote history  fields (Index=1,2) into time record = 0000042
     42     0 03:30:00  1.316662E-07  7.270471E+04  7.270471E+04  3.834460E+11
            (5,061,11)  7.296613E-10  9.920546E-06  6.802070E-04  5.141455E-04
      WRT_HIS   - wrote history  fields (Index=1,1) into time record = 0000043
     43     0 03:35:00  9.560916E-08  7.270470E+04  7.270470E+04  3.834460E+11
            (5,061,11)  8.172378E-10  4.520848E-06  5.850027E-04  3.419971E-04
      WRT_HIS   - wrote history  fields (Index=1,2) into time record = 0000044
     44     0 03:40:00  5.960790E-08  7.270468E+04  7.270468E+04  3.834460E+11
            (4,061,11)  1.183148E-09  3.754910E-07  2.474053E-04  2.429716E-04
      WRT_HIS   - wrote history  fields (Index=1,1) into time record = 0000045
     45     0 03:45:00  3.605910E-08  7.270468E+04  7.270468E+04  3.834460E+11
            (3,066,11)  8.705673E-15  5.345876E-06  9.316822E-05  1.780203E-04
      WRT_HIS   - wrote history  fields (Index=1,2) into time record = 0000046
     46     0 03:50:00  2.378976E-08  7.270467E+04  7.270467E+04  3.834460E+11
            (4,061,11)  1.471183E-09  2.684332E-06  1.726348E-04  1.711138E-04
      WRT_HIS   - wrote history  fields (Index=1,1) into time record = 0000047
     47     0 03:55:00  2.317531E-08  7.270468E+04  7.270468E+04  3.834460E+11
            (4,061,11)  1.641527E-09  2.231834E-06  1.753193E-04  1.881058E-04
      WRT_HIS   - wrote history  fields (Index=1,2) into time record = 0000048
     48     0 04:00:00  3.766362E-08  7.270468E+04  7.270468E+04  3.834460E+11
            (4,061,11)  1.832831E-09  1.816728E-06  1.417423E-04  2.095810E-04
      WRT_HIS   - wrote history  fields (Index=1,1) into time record = 0000049
     49     0 04:05:00  7.125382E-08  7.270469E+04  7.270469E+04  3.834460E+11
            (4,061,11)  2.047264E-09  1.651865E-06  1.127132E-04  2.337851E-04
      WRT_HIS   - wrote history  fields (Index=1,2) into time record = 0000050
     50     0 04:10:00  1.143954E-07  7.270470E+04  7.270470E+04  3.834460E+11
            (4,061,11)  2.287210E-09  1.712352E-06  1.003343E-04  2.705182E-04
      WRT_HIS   - wrote history  fields (Index=1,1) into time record = 0000051
     51     0 04:15:00  1.346454E-07  7.270472E+04  7.270472E+04  3.834460E+11
            (4,061,11)  2.555432E-09  1.829735E-06  1.022371E-04  2.904748E-04
      WRT_HIS   - wrote history  fields (Index=1,2) into time record = 0000052
     52     0 04:20:00  1.112086E-07  7.270473E+04  7.270473E+04  3.834460E+11
            (4,061,11)  2.855225E-09  1.873702E-06  1.076989E-04  2.607068E-04
      WRT_HIS   - wrote history  fields (Index=1,1) into time record = 0000053
     53     0 04:25:00  6.701623E-08  7.270475E+04  7.270475E+04  3.834460E+11
            (4,061,11)  3.190379E-09  1.911486E-06  1.087132E-04  2.217674E-04
      WRT_HIS   - wrote history  fields (Index=1,2) into time record = 0000054
     54     0 04:30:00  3.442373E-08  7.270476E+04  7.270476E+04  3.834460E+11
            (4,061,11)  3.565053E-09  2.117890E-06  1.094457E-04  1.984351E-04
      WRT_HIS   - wrote history  fields (Index=1,1) into time record = 0000055
     55     0 04:35:00  2.075481E-08  7.270476E+04  7.270476E+04  3.834460E+11
            (4,061,11)  3.983748E-09  2.507815E-06  1.204601E-04  1.745740E-04
      WRT_HIS   - wrote history  fields (Index=1,2) into time record = 0000056
     56     0 04:40:00  2.108723E-08  7.270476E+04  7.270476E+04  3.834460E+11
            (4,061,11)  4.451551E-09  2.749271E-06  1.424134E-04  1.466696E-04
      WRT_HIS   - wrote history  fields (Index=1,1) into time record = 0000057
     57     0 04:45:00  3.327202E-08  7.270476E+04  7.270476E+04  3.834460E+11
            (4,061,11)  4.974389E-09  2.143898E-06  1.550225E-04  1.730990E-04
      WRT_HIS   - wrote history  fields (Index=1,2) into time record = 0000058
     58     0 04:50:00  5.762394E-08  7.270475E+04  7.270475E+04  3.834460E+11
            (4,061,11)  5.559377E-09  9.147245E-08  1.164036E-04  2.371387E-04
      WRT_HIS   - wrote history  fields (Index=1,1) into time record = 0000059
     59     0 04:55:00  9.152499E-08  7.270474E+04  7.270474E+04  3.834460E+11
            (3,067,11)  2.196591E-14  1.930010E-05  7.325192E-05  3.308651E-04
      WRT_HIS   - wrote history  fields (Index=1,2) into time record = 0000060
     60     0 05:00:00  1.195315E-07  7.270472E+04  7.270472E+04  3.834460E+11
            (5,061,11)  5.022159E-09  8.021151E-06  2.532083E-04  4.600937E-04
      WRT_HIS   - wrote history  fields (Index=1,1) into time record = 0000061
     61     0 05:05:00  1.164308E-07  7.270471E+04  7.270471E+04  3.834460E+11
            (5,061,11)  5.601488E-09  9.469010E-06  4.882279E-04  4.943732E-04
      WRT_HIS   - wrote history  fields (Index=1,2) into time record = 0000062
     62     0 05:10:00  7.855003E-08  7.270469E+04  7.270469E+04  3.834460E+11
            (5,061,11)  6.247196E-09  6.902622E-06  5.637603E-04  3.641081E-04
      WRT_HIS   - wrote history  fields (Index=1,1) into time record = 0000063
     63     0 05:15:00  3.587999E-08  7.270468E+04  7.270468E+04  3.834460E+11
            (5,061,11)  6.964165E-09  1.877779E-06  3.970428E-04  1.879490E-04
      WRT_HIS   - wrote history  fields (Index=1,2) into time record = 0000064
     64     0 05:20:00  1.504717E-08  7.270467E+04  7.270467E+04  3.834460E+11
            (4,061,11)  1.086423E-08  2.423496E-06  8.769650E-05  1.186356E-04
      WRT_HIS   - wrote history  fields (Index=1,1) into time record = 0000065
     65     0 05:25:00  1.623971E-08  7.270467E+04  7.270467E+04  3.834460E+11
            (4,061,11)  1.213929E-08  4.186138E-06  1.695953E-04  2.263110E-04
      WRT_HIS   - wrote history  fields (Index=1,2) into time record = 0000066
     66     0 05:30:00  3.034026E-08  7.270468E+04  7.270468E+04  3.834460E+11
            (4,061,11)  1.356414E-08  3.920019E-06  2.678912E-04  2.545323E-04
      WRT_HIS   - wrote history  fields (Index=1,1) into time record = 0000067
     67     0 05:35:00  5.267981E-08  7.270469E+04  7.270469E+04  3.834460E+11
            (4,061,11)  1.515783E-08  2.987553E-06  2.427954E-04  2.600236E-04
      WRT_HIS   - wrote history  fields (Index=1,2) into time record = 0000068
     68     0 05:40:00  8.056642E-08  7.270470E+04  7.270470E+04  3.834460E+11
            (4,061,11)  1.694032E-08  2.228857E-06  1.798730E-04  2.666976E-04
      WRT_HIS   - wrote history  fields (Index=1,1) into time record = 0000069
     69     0 05:45:00  1.070227E-07  7.270471E+04  7.270471E+04  3.834460E+11
            (4,061,11)  1.893335E-08  1.830796E-06  1.303595E-04  2.731592E-04
      WRT_HIS   - wrote history  fields (Index=1,2) into time record = 0000070
     70     0 05:50:00  1.162632E-07  7.270473E+04  7.270473E+04  3.834460E+11
            (4,061,11)  2.116124E-08  1.684199E-06  1.045210E-04  2.738340E-04
      WRT_HIS   - wrote history  fields (Index=1,1) into time record = 0000071
     71     0 05:55:00  9.374992E-08  7.270474E+04  7.270474E+04  3.834460E+11
            (4,061,11)  2.365143E-08  1.617588E-06  9.467343E-05  2.424981E-04
      WRT_HIS   - wrote history  fields (Index=1,2) into time record = 0000072
     72     0 06:00:00  4.954530E-08  7.270475E+04  7.270475E+04  3.834460E+11
            (4,061,11)  2.643468E-08  1.524242E-06  8.985526E-05  1.719023E-04
      WRT_HIS   - wrote history  fields (Index=1,1) into time record = 0000073
     73     0 06:05:00  1.514964E-08  7.270476E+04  7.270476E+04  3.834460E+11
            (4,061,11)  2.954550E-08  1.416243E-06  8.346564E-05  1.203781E-04
      WRT_HIS   - wrote history  fields (Index=1,2) into time record = 0000074
     74     0 06:10:00  8.595373E-09  7.270476E+04  7.270476E+04  3.834460E+11
            (4,061,11)  3.302247E-08  1.341303E-06  7.629345E-05  9.020963E-05
      WRT_HIS   - wrote history  fields (Index=1,1) into time record = 0000075
     75     0 06:15:00  2.268040E-08  7.270476E+04  7.270476E+04  3.834460E+11
            (4,061,11)  3.690860E-08  1.212206E-06  7.125710E-05  1.393305E-04
      WRT_HIS   - wrote history  fields (Index=1,2) into time record = 0000076
     76     0 06:20:00  4.501093E-08  7.270475E+04  7.270475E+04  3.834460E+11
            (4,061,11)  4.125205E-08  7.125834E-07  6.304666E-05  1.908189E-04
      WRT_HIS   - wrote history  fields (Index=1,1) into time record = 0000077
     77     0 06:25:00  6.944273E-08  7.270474E+04  7.270474E+04  3.834460E+11
            (5,072,11)  1.535568E-15  1.277037E-05  4.979197E-05  2.426506E-04
      WRT_HIS   - wrote history  fields (Index=1,2) into time record = 0000078
     78     0 06:30:00  9.174204E-08  7.270473E+04  7.270473E+04  3.834460E+11
            (3,068,11)  9.803839E-14  1.665731E-05  5.996135E-05  3.014606E-04
      WRT_HIS   - wrote history  fields (Index=1,1) into time record = 0000079
     79     0 06:35:00  1.039783E-07  7.270472E+04  7.270472E+04  3.834460E+11
            (4,061,11)  5.760000E-08  5.656563E-06  1.823724E-04  3.742978E-04
      WRT_HIS   - wrote history  fields (Index=1,2) into time record = 0000080
     80     0 06:40:00  9.466928E-08  7.270470E+04  7.270470E+04  3.834460E+11
            (4,061,11)  6.438126E-08  7.486300E-06  3.441814E-04  4.194004E-04
      WRT_HIS   - wrote history  fields (Index=1,1) into time record = 0000081
     81     0 06:45:00  6.076939E-08  7.270469E+04  7.270469E+04  3.834460E+11
            (4,061,11)  7.196062E-08  6.868738E-06  4.465373E-04  3.578391E-04
      WRT_HIS   - wrote history  fields (Index=1,2) into time record = 0000082
     82     0 06:50:00  2.105672E-08  7.270468E+04  7.270468E+04  3.834460E+11
            (4,061,11)  8.043031E-08  3.532294E-06  3.999873E-04  1.806796E-04
      WRT_HIS   - wrote history  fields (Index=1,1) into time record = 0000083
     83     0 06:55:00  2.959729E-09  7.270467E+04  7.270467E+04  3.834460E+11
            (4,061,11)  8.989363E-08  9.567997E-07  1.918335E-04  5.587518E-05
      WRT_HIS   - wrote history  fields (Index=1,2) into time record = 0000084
     84     0 07:00:00  1.376087E-08  7.270468E+04  7.270468E+04  3.834460E+11
            (4,061,11)  1.004672E-07  4.308553E-06  7.994854E-05  2.282363E-04
      WRT_HIS   - wrote history  fields (Index=1,1) into time record = 0000085
     85     0 07:05:00  3.941708E-08  7.270468E+04  7.270468E+04  3.834460E+11
            (4,061,11)  1.122826E-07  5.324567E-06  2.765366E-04  3.027360E-04
      WRT_HIS   - wrote history  fields (Index=1,2) into time record = 0000086
     86     0 07:10:00  6.581781E-08  7.270469E+04  7.270469E+04  3.834460E+11
            (4,061,11)  1.254883E-07  4.508281E-06  3.284286E-04  3.035049E-04
      WRT_HIS   - wrote history  fields (Index=1,1) into time record = 0000087
     87     0 07:15:00  8.696752E-08  7.270471E+04  7.270471E+04  3.834460E+11
            (4,061,11)  1.402485E-07  3.116342E-06  2.701425E-04  2.888093E-04
      WRT_HIS   - wrote history  fields (Index=1,2) into time record = 0000088
     88     0 07:20:00  9.899807E-08  7.270472E+04  7.270472E+04  3.834460E+11
            (4,061,11)  1.567462E-07  2.018500E-06  1.801848E-04  2.745366E-04
      WRT_HIS   - wrote history  fields (Index=1,1) into time record = 0000089
     89     0 07:25:00  9.581603E-08  7.270473E+04  7.270473E+04  3.834460E+11
            (4,061,11)  1.751849E-07  1.406027E-06  1.112729E-04  2.549337E-04
      WRT_HIS   - wrote history  fields (Index=1,2) into time record = 0000090
     90     0 07:30:00  7.233074E-08  7.270474E+04  7.270474E+04  3.834460E+11
            (4,061,11)  1.957923E-07  1.108966E-06  7.373636E-05  2.189748E-04
      WRT_HIS   - wrote history  fields (Index=1,1) into time record = 0000091
     91     0 07:35:00  3.491452E-08  7.270475E+04  7.270475E+04  3.834460E+11
            (4,061,11)  2.188232E-07  9.171934E-07  5.604944E-05  1.509805E-04
      WRT_HIS   - wrote history  fields (Index=1,2) into time record = 0000092
     92     0 07:40:00  5.491398E-09  7.270476E+04  7.270476E+04  3.834460E+11
            (4,061,11)  2.445624E-07  7.110373E-07  4.484829E-05  5.506856E-05
      WRT_HIS   - wrote history  fields (Index=1,1) into time record = 0000093
     93     0 07:45:00  3.693776E-09  7.270476E+04  7.270476E+04  3.834460E+11
            (4,061,11)  2.733284E-07  4.620646E-07  3.275388E-05  6.153234E-05
      WRT_HIS   - wrote history  fields (Index=1,2) into time record = 0000094
     94     0 07:50:00  2.651137E-08  7.270476E+04  7.270476E+04  3.834460E+11
            (5,080,11)  3.131417E-15  7.302680E-06  1.680734E-05  1.462990E-04
      WRT_HIS   - wrote history  fields (Index=1,1) into time record = 0000095
     95     0 07:55:00  5.563449E-08  7.270475E+04  7.270475E+04  3.834460E+11
            (4,098,11)  4.319554E-15  2.590956E-06  4.049562E-05  2.017696E-04
      WRT_HIS   - wrote history  fields (Index=1,2) into time record = 0000096
     96     0 08:00:00  7.778820E-08  7.270474E+04  7.270474E+04  3.834460E+11
            (5,073,11)  7.964668E-15  1.285897E-05  3.893495E-05  2.408862E-04
      WRT_HIS   - wrote history  fields (Index=1,1) into time record = 0000097
     97     0 08:05:00  8.907241E-08  7.270472E+04  7.270472E+04  3.834460E+11
            (4,061,11)  4.264328E-07  2.497194E-06  7.643723E-05  2.779124E-04
      WRT_HIS   - wrote history  fields (Index=1,2) into time record = 0000098
     98     0 08:10:00  8.785094E-08  7.270471E+04  7.270471E+04  3.834460E+11
            (4,061,11)  4.765821E-07  4.197153E-06  1.556056E-04  3.140882E-04
      WRT_HIS   - wrote history  fields (Index=1,1) into time record = 0000099
     99     0 08:15:00  7.182035E-08  7.270470E+04  7.270470E+04  3.834460E+11
            (4,061,11)  5.326265E-07  5.581659E-06  2.544953E-04  3.383803E-04
      WRT_HIS   - wrote history  fields (Index=1,2) into time record = 0000100
    100     0 08:20:00  4.248988E-08  7.270468E+04  7.270468E+04  3.834460E+11
            (4,061,11)  5.952589E-07  5.656504E-06  3.325728E-04  3.062949E-04
      WRT_HIS   - wrote history  fields (Index=1,1) into time record = 0000101
    101     0 08:25:00  1.203120E-08  7.270468E+04  7.270468E+04  3.834460E+11
            (4,061,11)  6.652536E-07  3.752088E-06  3.305758E-04  1.854081E-04
      WRT_HIS   - wrote history  fields (Index=1,2) into time record = 0000102
    102     0 08:30:00  1.275242E-10  7.270467E+04  7.270467E+04  3.834460E+11
            (4,061,11)  7.434768E-07  2.429489E-07  2.101304E-04  1.289253E-05
      WRT_HIS   - wrote history  fields (Index=1,1) into time record = 0000103
    103     0 08:35:00  1.607772E-08  7.270468E+04  7.270468E+04  3.834460E+11
            (5,064,11)  3.068710E-10  1.134934E-05  5.297310E-06  1.942173E-04
      WRT_HIS   - wrote history  fields (Index=1,2) into time record = 0000104
    104     0 08:40:00  4.789971E-08  7.270469E+04  7.270469E+04  3.834460E+11
            (4,061,11)  9.285897E-07  5.616924E-06  2.209866E-04  3.132248E-04
      WRT_HIS   - wrote history  fields (Index=1,1) into time record = 0000105
    105     0 08:45:00  7.575784E-08  7.270470E+04  7.270470E+04  3.834460E+11
            (4,061,11)  1.037768E-06  5.712558E-06  3.457041E-04  3.378881E-04
      WRT_HIS   - wrote history  fields (Index=1,2) into time record = 0000106
    106     0 08:50:00  8.950297E-08  7.270471E+04  7.270471E+04  3.834460E+11
            (4,061,11)  1.159783E-06  4.312025E-06  3.418035E-04  3.047733E-04
      WRT_HIS   - wrote history  fields (Index=1,1) into time record = 0000107
    107     0 08:55:00  8.884708E-08  7.270473E+04  7.270473E+04  3.834460E+11
            (4,061,11)  1.296143E-06  2.554835E-06  2.493213E-04  2.678523E-04
      WRT_HIS   - wrote history  fields (Index=1,2) into time record = 0000108
    108     0 09:00:00  7.544390E-08  7.270474E+04  7.270474E+04  3.834460E+11
            (4,061,11)  1.448533E-06  1.234309E-06  1.388838E-04  2.320352E-04
      WRT_HIS   - wrote history  fields (Index=1,1) into time record = 0000109
    109     0 09:05:00  5.111222E-08  7.270475E+04  7.270475E+04  3.834460E+11
            (4,061,11)  1.618837E-06  5.111080E-07  5.815282E-05  1.886309E-04
      WRT_HIS   - wrote history  fields (Index=1,2) into time record = 0000110
    110     0 09:10:00  2.220857E-08  7.270476E+04  7.270476E+04  3.834460E+11
            (4,097,11)  6.924753E-15  2.216766E-06  3.948145E-05  1.276465E-04
      WRT_HIS   - wrote history  fields (Index=1,1) into time record = 0000111
    111     0 09:15:00  2.537026E-09  7.270476E+04  7.270476E+04  3.834460E+11
            (4,099,11)  4.995248E-15  2.456170E-07  3.369250E-05  4.581057E-05
      WRT_HIS   - wrote history  fields (Index=1,2) into time record = 0000112
    112     0 09:20:00  5.986299E-09  7.270476E+04  7.270476E+04  3.834460E+11
            (1,080,11)  2.148427E-15  4.179400E-06  1.397581E-05  6.965671E-05
      WRT_HIS   - wrote history  fields (Index=1,1) into time record = 0000113
    113     0 09:25:00  3.195398E-08  7.270475E+04  7.270475E+04  3.834460E+11
            (4,061,11)  2.525166E-06  5.691591E-07  2.778133E-05  1.510784E-04
      WRT_HIS   - wrote history  fields (Index=1,2) into time record = 0000114
    114     0 09:30:00  6.314058E-08  7.270474E+04  7.270474E+04  3.834460E+11
            (4,061,11)  2.822012E-06  9.592646E-07  4.458840E-05  2.083467E-04
      WRT_HIS   - wrote history  fields (Index=1,1) into time record = 0000115
    115     0 09:35:00  8.188139E-08  7.270473E+04  7.270473E+04  3.834460E+11
            (4,061,11)  3.153744E-06  1.503953E-06  6.697496E-05  2.372347E-04
      WRT_HIS   - wrote history  fields (Index=1,2) into time record = 0000116
    116     0 09:40:00  8.321984E-08  7.270472E+04  7.270472E+04  3.834460E+11
            (4,061,11)  3.524459E-06  2.270973E-06  9.845846E-05  2.532465E-04
      WRT_HIS   - wrote history  fields (Index=1,1) into time record = 0000117
    117     0 09:45:00  7.115471E-08  7.270470E+04  7.270470E+04  3.834460E+11
            (4,061,11)  3.938738E-06  3.212648E-06  1.429322E-04  2.650367E-04
      WRT_HIS   - wrote history  fields (Index=1,2) into time record = 0000118
    118     0 09:50:00  5.055224E-08  7.270469E+04  7.270469E+04  3.834460E+11
            (4,061,11)  4.401697E-06  4.025030E-06  1.972694E-04  2.666392E-04
      WRT_HIS   - wrote history  fields (Index=1,1) into time record = 0000119
    119     0 09:55:00  2.634254E-08  7.270468E+04  7.270468E+04  3.834460E+11
            (4,061,11)  4.919056E-06  4.145267E-06  2.429898E-04  2.382272E-04
      WRT_HIS   - wrote history  fields (Index=1,2) into time record = 0000120
    120     0 10:00:00  6.954145E-09  7.270468E+04  7.270468E+04  3.834460E+11
            (4,061,11)  5.497213E-06  3.015494E-06  2.464471E-04  1.553157E-04
      WRT_HIS   - wrote history  fields (Index=1,1) into time record = 0000121
    121     0 10:05:00  3.863663E-09  7.270468E+04  7.270468E+04  3.834460E+11
            (4,061,11)  6.143324E-06  5.407085E-07  1.750487E-04  8.815305E-05
      WRT_HIS   - wrote history  fields (Index=1,2) into time record = 0000122
    122     0 10:10:00  2.291001E-08  7.270468E+04  7.270468E+04  3.834460E+11
            (4,061,11)  6.865387E-06  2.603629E-06  2.475340E-05  1.672060E-04
      WRT_HIS   - wrote history  fields (Index=1,1) into time record = 0000123
    123     0 10:15:00  5.500424E-08  7.270469E+04  7.270469E+04  3.834460E+11
            (4,061,11)  7.672308E-06  5.193427E-06  1.621324E-04  2.942766E-04
      WRT_HIS   - wrote history  fields (Index=1,2) into time record = 0000124
    124     0 10:20:00  8.095269E-08  7.270470E+04  7.270470E+04  3.834460E+11
            (4,061,11)  8.574070E-06  6.183161E-06  3.114213E-04  3.471742E-04
      WRT_HIS   - wrote history  fields (Index=1,1) into time record = 0000125
    125     0 10:25:00  8.788437E-08  7.270472E+04  7.270472E+04  3.834460E+11
            (4,061,11)  9.581821E-06  5.385107E-06  3.615119E-04  3.189307E-04
      WRT_HIS   - wrote history  fields (Index=1,2) into time record = 0000126
    126     0 10:30:00  7.693542E-08  7.270473E+04  7.270473E+04  3.834460E+11
            (4,061,11)  1.070801E-05  3.511233E-06  3.038174E-04  2.560237E-04
      WRT_HIS   - wrote history  fields (Index=1,1) into time record = 0000127
    127     0 10:35:00  5.612361E-08  7.270474E+04  7.270474E+04  3.834460E+11
            (4,061,11)  1.196656E-05  1.577126E-06  1.838273E-04  2.030714E-04
      WRT_HIS   - wrote history  fields (Index=1,2) into time record = 0000128
    128     0 10:40:00  3.258329E-08  7.270475E+04  7.270475E+04  3.834460E+11
            (4,061,11)  1.337301E-05  2.414646E-07  6.384089E-05  1.895352E-04
      WRT_HIS   - wrote history  fields (Index=1,1) into time record = 0000129
    129     0 10:45:00  1.256193E-08  7.270476E+04  7.270476E+04  3.834460E+11
            (5,069,11)  1.366853E-11  1.330477E-06  3.775784E-05  2.118711E-04
      WRT_HIS   - wrote history  fields (Index=1,2) into time record = 0000130
    130     0 10:50:00  3.806706E-09  7.270476E+04  7.270476E+04  3.834460E+11
            (4,061,11)  1.670114E-05  6.290064E-07  5.520072E-05  2.369239E-04
      WRT_HIS   - wrote history  fields (Index=1,1) into time record = 0000131
    131     0 10:55:00  1.313913E-08  7.270475E+04  7.270475E+04  3.834460E+11
            (4,061,11)  1.866396E-05  7.112336E-07  6.746862E-05  2.647062E-04
      WRT_HIS   - wrote history  fields (Index=1,2) into time record = 0000132
    132     0 11:00:00  3.885812E-08  7.270475E+04  7.270475E+04  3.834460E+11
            (4,061,11)  2.085745E-05  8.181389E-07  7.200163E-05  2.957693E-04
      WRT_HIS   - wrote history  fields (Index=1,1) into time record = 0000133
    133     0 11:05:00  6.711348E-08  7.270474E+04  7.270474E+04  3.834460E+11
            (4,061,11)  2.330869E-05  9.995427E-07  7.875170E-05  3.305768E-04
      WRT_HIS   - wrote history  fields (Index=1,2) into time record = 0000134
    134     0 11:10:00  8.105996E-08  7.270472E+04  7.270472E+04  3.834460E+11
            (4,061,11)  2.604798E-05  1.260912E-06  9.053450E-05  3.695862E-04
      WRT_HIS   - wrote history  fields (Index=1,1) into time record = 0000135
    135     0 11:15:00  7.471287E-08  7.270471E+04  7.270471E+04  3.834460E+11
            (4,061,11)  2.910916E-05  1.601466E-06  1.074785E-04  4.133025E-04
      WRT_HIS   - wrote history  fields (Index=1,2) into time record = 0000136
    136     0 11:20:00  5.499321E-08  7.270470E+04  7.270470E+04  3.834460E+11
            (4,061,11)  3.253005E-05  1.985648E-06  1.294026E-04  4.622012E-04
      WRT_HIS   - wrote history  fields (Index=1,1) into time record = 0000137
    137     0 11:25:00  3.237428E-08  7.270469E+04  7.270469E+04  3.834460E+11
            (4,061,11)  3.635291E-05  2.269287E-06  1.540838E-04  5.165111E-04
      WRT_HIS   - wrote history  fields (Index=1,2) into time record = 0000138
    138     0 11:30:00  1.425520E-08  7.270468E+04  7.270468E+04  3.834460E+11
            (4,061,11)  4.062500E-05  2.157637E-06  1.728287E-04  5.762138E-04
      WRT_HIS   - wrote history  fields (Index=1,1) into time record = 0000139
    139     0 11:35:00  5.848833E-09  7.270468E+04  7.270468E+04  3.834460E+11
            (4,061,11)  4.539914E-05  1.290352E-06  1.680749E-04  6.419816E-04
      WRT_HIS   - wrote history  fields (Index=1,2) into time record = 0000140
    140     0 11:40:00  1.176119E-08  7.270468E+04  7.270468E+04  3.834460E+11
            (4,061,11)  5.073439E-05  5.216524E-07  1.186969E-04  7.165564E-04
      WRT_HIS   - wrote history  fields (Index=1,1) into time record = 0000141
    141     0 11:45:00  3.290964E-08  7.270469E+04  7.270469E+04  3.834460E+11
            (5,061,10)  2.883188E-05  4.943304E-08  6.677559E-05  8.036454E-04
      WRT_HIS   - wrote history  fields (Index=1,2) into time record = 0000142
    142     0 11:50:00  6.144260E-08  7.270470E+04  7.270470E+04  3.834460E+11
            (4,061,11)  6.335999E-05  5.501036E-06  1.289731E-04  9.036814E-04
      WRT_HIS   - wrote history  fields (Index=1,1) into time record = 0000143
    143     0 11:55:00  8.207425E-08  7.270471E+04  7.270471E+04  3.834460E+11
            (4,061,11)  7.080641E-05  7.010444E-06  2.660390E-04  1.012783E-03
      WRT_HIS   - wrote history  fields (Index=1,2) into time record = 0000144
    144     0 12:00:00  8.296250E-08  7.270472E+04  7.270472E+04  3.834460E+11
            (4,061,11)  7.912817E-05  6.994587E-06  3.418712E-04  1.128509E-03
      WRT_HIS   - wrote history  fields (Index=1,1) into time record = 0000145
    145     0 12:05:00  6.537497E-08  7.270474E+04  7.270474E+04  3.834460E+11
            (4,061,11)  8.842812E-05  5.611367E-06  3.240880E-04  1.254332E-03
      WRT_HIS   - wrote history  fields (Index=1,2) into time record = 0000146
    146     0 12:10:00  4.067520E-08  7.270475E+04  7.270475E+04  3.834460E+11
            (4,061,11)  9.882123E-05  3.628770E-06  2.244260E-04  1.396265E-03
      WRT_HIS   - wrote history  fields (Index=1,1) into time record = 0000147
    147     0 12:15:00  1.999081E-08  7.270475E+04  7.270475E+04  3.834460E+11
            (4,061,11)  1.104360E-04  1.919307E-06  9.078409E-05  1.557769E-03
      WRT_HIS   - wrote history  fields (Index=1,2) into time record = 0000148
    148     0 12:20:00  9.294463E-09  7.270476E+04  7.270476E+04  3.834460E+11
            (5,061,10)  6.245606E-05  5.947109E-06  1.379981E-04  1.739910E-03
      WRT_HIS   - wrote history  fields (Index=1,1) into time record = 0000149
    149     0 12:25:00  1.125813E-08  7.270475E+04  7.270475E+04  3.834460E+11
            (5,061,10)  6.975012E-05  6.859475E-06  1.993279E-04  1.943926E-03
      WRT_HIS   - wrote history  fields (Index=1,2) into time record = 0000150
    150     0 12:30:00  2.652456E-08  7.270475E+04  7.270475E+04  3.834460E+11
            (5,061,10)  7.789651E-05  7.424106E-06  2.310522E-04  2.172006E-03
      WRT_HIS   - wrote history  fields (Index=1,1) into time record = 0000151
    151     0 12:35:00  5.113278E-08  7.270474E+04  7.270474E+04  3.834460E+11
            (5,061,10)  8.699487E-05  7.958330E-06  2.468880E-04  2.426898E-03
      WRT_HIS   - wrote history  fields (Index=1,2) into time record = 0000152
    152     0 12:40:00  7.441255E-08  7.270473E+04  7.270473E+04  3.834460E+11
            (5,061,10)  9.715643E-05  8.632092E-06  2.603361E-04  2.711700E-03
      WRT_HIS   - wrote history  fields (Index=1,1) into time record = 0000153
    153     0 12:45:00  8.360534E-08  7.270472E+04  7.270472E+04  3.834460E+11
            (5,061,10)  1.085054E-04  9.483472E-06  2.786245E-04  3.029898E-03
      WRT_HIS   - wrote history  fields (Index=1,2) into time record = 0000154
    154     0 12:50:00  7.385659E-08  7.270471E+04  7.270471E+04  3.834460E+11
            (5,061,10)  1.211806E-04  1.048968E-05  3.033317E-04  3.385422E-03
      WRT_HIS   - wrote history  fields (Index=1,1) into time record = 0000155
    155     0 12:55:00  5.281252E-08  7.270469E+04  7.270469E+04  3.834460E+11
            (5,061,10)  1.353369E-04  1.160694E-05  3.333929E-04  3.782680E-03
      WRT_HIS   - wrote history  fields (Index=1,2) into time record = 0000156
    156     0 13:00:00  3.380925E-08  7.270469E+04  7.270469E+04  3.834460E+11
            (5,061,10)  1.511472E-04  1.275879E-05  3.668118E-04  4.226612E-03
      WRT_HIS   - wrote history  fields (Index=1,1) into time record = 0000157
    157     0 13:05:00  2.613500E-08  7.270468E+04  7.270468E+04  3.834460E+11
            (5,061,10)  1.688048E-04  1.380773E-05  4.001918E-04  4.722783E-03
      WRT_HIS   - wrote history  fields (Index=1,2) into time record = 0000158
    158     0 13:10:00  3.250079E-08  7.270468E+04  7.270468E+04  3.834460E+11
            (5,061,10)  1.885255E-04  1.457161E-05  4.275636E-04  5.277467E-03
      WRT_HIS   - wrote history  fields (Index=1,1) into time record = 0000159
    159     0 13:15:00  5.199471E-08  7.270468E+04  7.270468E+04  3.834460E+11
            (5,061,10)  2.105502E-04  1.492685E-05  4.410859E-04  5.897714E-03
      WRT_HIS   - wrote history  fields (Index=1,2) into time record = 0000160
    160     0 13:20:00  8.140783E-08  7.270469E+04  7.270469E+04  3.834460E+11
            (5,061,10)  2.351482E-04  1.497060E-05  4.354114E-04  6.591282E-03
      WRT_HIS   - wrote history  fields (Index=1,1) into time record = 0000161
    161     0 13:25:00  1.137126E-07  7.270470E+04  7.270470E+04  3.834460E+11
            (3,061,09)  6.411071E-06  2.081752E-05  7.394246E-04  7.366456E-03
      WRT_HIS   - wrote history  fields (Index=1,2) into time record = 0000162
    162     0 13:30:00  1.385569E-07  7.270472E+04  7.270472E+04  3.834460E+11
            (3,061,09)  7.245490E-06  2.408439E-05  8.694600E-04  8.232052E-03
      WRT_HIS   - wrote history  fields (Index=1,1) into time record = 0000163
    163     0 13:35:00  1.483742E-07  7.270473E+04  7.270473E+04  3.834460E+11
            (3,061,09)  8.188884E-06  2.646003E-05  9.943002E-04  9.197994E-03
      WRT_HIS   - wrote history  fields (Index=1,2) into time record = 0000164
    164     0 13:40:00  1.458393E-07  7.270474E+04  7.270474E+04  3.834460E+11
            (3,061,09)  9.255601E-06  2.782117E-05  1.099724E-03  1.027611E-02
      WRT_HIS   - wrote history  fields (Index=1,1) into time record = 0000165
    165     0 13:45:00  1.436834E-07  7.270475E+04  7.270475E+04  3.834460E+11
            (3,061,09)  1.046190E-05  2.861004E-05  1.182934E-03  1.148035E-02
      WRT_HIS   - wrote history  fields (Index=1,2) into time record = 0000166
    166     0 13:50:00  1.557683E-07  7.270475E+04  7.270475E+04  3.834460E+11
            (3,061,09)  1.182624E-05  2.962373E-05  1.256339E-03  1.282639E-02
      WRT_HIS   - wrote history  fields (Index=1,1) into time record = 0000167
    167     0 13:55:00  1.891980E-07  7.270476E+04  7.270476E+04  3.834460E+11
            (5,061,10)  5.095546E-04  3.824435E-05  9.711973E-04  1.433130E-02
      WRT_HIS   - wrote history  fields (Index=1,2) into time record = 0000168
    168     0 14:00:00  2.444088E-07  7.270475E+04  7.270475E+04  3.834460E+11
            (5,061,10)  5.690450E-04  4.323213E-05  1.149470E-03  1.601377E-02
      WRT_HIS   - wrote history  fields (Index=1,1) into time record = 0000169
    169     0 14:05:00  3.191603E-07  7.270474E+04  7.270474E+04  3.834460E+11
            (5,061,10)  6.354678E-04  4.801436E-05  1.304373E-03  1.789446E-02
      WRT_HIS   - wrote history  fields (Index=1,2) into time record = 0000170
    170     0 14:10:00  4.101763E-07  7.270473E+04  7.270473E+04  3.834460E+11
            (5,061,10)  7.096272E-04  5.300031E-05  1.443516E-03  1.999644E-02
      WRT_HIS   - wrote history  fields (Index=1,1) into time record = 0000171
    171     0 14:15:00  5.128549E-07  7.270472E+04  7.270472E+04  3.834460E+11
            (5,061,10)  7.924197E-04  5.856391E-05  1.583592E-03  2.234554E-02
      WRT_HIS   - wrote history  fields (Index=1,2) into time record = 0000172
    172     0 14:20:00  6.235242E-07  7.270471E+04  7.270471E+04  3.834460E+11
            (5,061,10)  8.848441E-04  6.492415E-05  1.739702E-03  2.497075E-02
      WRT_HIS   - wrote history  fields (Index=1,1) into time record = 0000173
    173     0 14:25:00  7.453417E-07  7.270470E+04  7.270470E+04  3.834460E+11
            (5,061,10)  9.880128E-04  7.216620E-05  1.920233E-03  2.790458E-02
      WRT_HIS   - wrote history  fields (Index=1,2) into time record = 0000174
    174     0 14:30:00  8.923783E-07  7.270469E+04  7.270469E+04  3.834460E+11
            (5,061,10)  1.103165E-03  8.031551E-05  2.127719E-03  3.118343E-02
      WRT_HIS   - wrote history  fields (Index=1,1) into time record = 0000175
    175     0 14:35:00  1.085847E-06  7.270469E+04  7.270469E+04  3.834460E+11
            (5,061,10)  1.231679E-03  8.938762E-05  2.361975E-03  3.484803E-02
      WRT_HIS   - wrote history  fields (Index=1,2) into time record = 0000176
    176     0 14:40:00  1.345243E-06  7.270468E+04  7.270468E+04  3.834460E+11
            (5,061,10)  1.375089E-03  9.939788E-05  2.622213E-03  3.894391E-02
      WRT_HIS   - wrote history  fields (Index=1,1) into time record = 0000177
    177     0 14:45:00  1.683774E-06  7.270468E+04  7.270468E+04  3.834460E+11
            (5,061,10)  1.535103E-03  1.103640E-04  2.907463E-03  4.352202E-02
      WRT_HIS   - wrote history  fields (Index=1,2) into time record = 0000178
    178     0 14:50:00  2.111542E-06  7.270469E+04  7.270469E+04  3.834460E+11
            (5,061,10)  1.713616E-03  1.223437E-04  3.216673E-03  4.863931E-02
      WRT_HIS   - wrote history  fields (Index=1,1) into time record = 0000179
    179     0 14:55:00  2.640822E-06  7.270470E+04  7.270470E+04  3.834460E+11
            (5,061,10)  1.912736E-03  1.355174E-04  3.550269E-03  5.435943E-02
      WRT_HIS   - wrote history  fields (Index=1,2) into time record = 0000180
    180     0 15:00:00  3.288501E-06  7.270471E+04  7.270471E+04  3.834460E+11
            (5,061,10)  2.134800E-03  1.502742E-04  3.913619E-03  6.075344E-02
      WRT_HIS   - wrote history  fields (Index=1,1) into time record = 0000181
    181     0 15:05:00  4.077405E-06  7.270472E+04  7.270472E+04  3.834460E+11
            (3,061,09)  7.577578E-05  1.663728E-04  6.663239E-03  6.790068E-02
      WRT_HIS   - wrote history  fields (Index=1,2) into time record = 0000182
    182     0 15:10:00  5.040166E-06  7.270473E+04  7.270473E+04  3.834460E+11
            (3,061,09)  8.596980E-05  1.861487E-04  7.488315E-03  7.588986E-02
      WRT_HIS   - wrote history  fields (Index=1,1) into time record = 0000183
    183     0 15:15:00  6.224887E-06  7.270474E+04  7.270474E+04  3.834460E+11
            (3,061,09)  9.758545E-05  2.072994E-04  8.392454E-03  8.482040E-02
      WRT_HIS   - wrote history  fields (Index=1,2) into time record = 0000184
    184     0 15:20:00  7.697302E-06  7.270475E+04  7.270475E+04  3.834460E+11
            (3,061,09)  1.108337E-04  2.302617E-04  9.381619E-03  9.480374E-02
      WRT_HIS   - wrote history  fields (Index=1,1) into time record = 0000185
    185     0 15:25:00  9.536632E-06  7.270475E+04  7.270475E+04  3.834460E+11
            (3,061,09)  1.259600E-04  2.559061E-04  1.047418E-02  1.059648E-01
      WRT_HIS   - wrote history  fields (Index=1,2) into time record = 0000186
    186     0 15:30:00  1.183035E-05  7.270475E+04  7.270475E+04  3.834460E+11
            (3,061,09)  1.432503E-04  2.853035E-04  1.170117E-02  1.184433E-01
      WRT_HIS   - wrote history  fields (Index=1,1) into time record = 0000187
    187     0 15:35:00  1.467565E-05  7.270475E+04  7.270475E+04  3.834460E+11
            (3,061,09)  1.630394E-04  3.194007E-04  1.310027E-02  1.323955E-01
      WRT_HIS   - wrote history  fields (Index=1,2) into time record = 0000188
    188     0 15:40:00  1.818788E-05  7.270474E+04  7.270474E+04  3.834460E+11
            (3,061,09)  1.857195E-04  3.588244E-04  1.470729E-02  1.479958E-01
      WRT_HIS   - wrote history  fields (Index=1,1) into time record = 0000189
    189     0 15:45:00  2.250985E-05  7.270473E+04  7.270473E+04  3.834460E+11
            (3,061,09)  2.117519E-04  4.039307E-04  1.655120E-02  1.654391E-01
      WRT_HIS   - wrote history  fields (Index=1,2) into time record = 0000190
    190     0 15:50:00  2.781843E-05  7.270472E+04  7.270472E+04  3.834460E+11
            (3,061,09)  2.416807E-04  4.550310E-04  1.865577E-02  1.849431E-01
      WRT_HIS   - wrote history  fields (Index=1,1) into time record = 0000191
    191     0 15:55:00  3.433134E-05  7.270471E+04  7.270471E+04  3.834460E+11
            (3,061,09)  2.761493E-04  5.126210E-04  2.104599E-02  2.067509E-01
      WRT_HIS   - wrote history  fields (Index=1,2) into time record = 0000192
    192     0 16:00:00  4.231647E-05  7.270470E+04  7.270470E+04  3.834460E+11
            (3,061,09)  3.159206E-04  5.774883E-04  2.375461E-02  2.311341E-01
      WRT_HIS   - wrote history  fields (Index=1,1) into time record = 0000193
    193     0 16:05:00  5.210226E-05  7.270469E+04  7.270469E+04  3.834460E+11
            (3,061,09)  3.619020E-04  6.506989E-04  2.682567E-02  2.583955E-01
      WRT_HIS   - wrote history  fields (Index=1,2) into time record = 0000194
    194     0 16:10:00  6.408485E-05  7.270468E+04  7.270468E+04  3.834460E+11
            (3,061,09)  4.151760E-04  7.335374E-04  3.031479E-02  2.888721E-01
      WRT_HIS   - wrote history  fields (Index=1,1) into time record = 0000195
    195     0 16:15:00  7.873213E-05  7.270468E+04  7.270468E+04  3.834460E+11
            (3,061,09)  4.770370E-04  8.274712E-04  3.428839E-02  3.229383E-01
      WRT_HIS   - wrote history  fields (Index=1,2) into time record = 0000196
    196     0 16:20:00  9.659100E-05  7.270469E+04  7.270469E+04  3.834460E+11
            (3,061,09)  5.490369E-04  9.341509E-04  3.882375E-02  3.610088E-01
      WRT_HIS   - wrote history  fields (Index=1,1) into time record = 0000197
    197     0 16:25:00  1.183030E-04  7.270469E+04  7.270469E+04  3.834460E+11
            (3,061,09)  6.330404E-04  1.055422E-03  4.401017E-02  4.035417E-01
      WRT_HIS   - wrote history  fields (Index=1,2) into time record = 0000198
    198     0 16:30:00  1.446260E-04  7.270470E+04  7.270470E+04  3.834460E+11
            (3,061,09)  7.312927E-04  1.193317E-03  4.995074E-02  4.510399E-01
      WRT_HIS   - wrote history  fields (Index=1,1) into time record = 0000199
    199     0 16:35:00  1.764563E-04  7.270472E+04  7.270472E+04  3.834460E+11
            (3,061,09)  8.465005E-04  1.350035E-03  5.676380E-02  5.040521E-01
      WRT_HIS   - wrote history  fields (Index=1,2) into time record = 0000200
    200     0 16:40:00  2.148488E-04  7.270473E+04  7.270473E+04  3.834460E+11
            (3,061,09)  9.819310E-04  1.527933E-03  6.458426E-02  5.631717E-01
      WRT_HIS   - wrote history  fields (Index=1,1) into time record = 0000201
    201     0 16:45:00  2.610398E-04  7.270474E+04  7.270474E+04  3.834460E+11
            (3,061,09)  1.141529E-03  1.729578E-03  7.356581E-02  6.290326E-01
      WRT_HIS   - wrote history  fields (Index=1,2) into time record = 0000202
    202     0 16:50:00  3.164734E-04  7.270475E+04  7.270475E+04  3.834460E+11
            (3,061,09)  1.330060E-03  1.957862E-03  8.388488E-02  7.023000E-01
      WRT_HIS   - wrote history  fields (Index=1,1) into time record = 0000203
    203     0 16:55:00  3.828309E-04  7.270475E+04  7.270475E+04  3.834460E+11
            (3,061,09)  1.553272E-03  2.216094E-03  9.574671E-02  7.836559E-01
      WRT_HIS   - wrote history  fields (Index=1,2) into time record = 0000204
    204     0 17:00:00  4.620621E-04  7.270475E+04  7.270475E+04  3.834460E+11
            (3,061,09)  1.818099E-03  2.507942E-03  1.093912E-01  8.737748E-01
      WRT_HIS   - wrote history  fields (Index=1,1) into time record = 0000205
    205     0 17:05:00  5.564205E-04  7.270475E+04  7.270475E+04  3.834460E+11
            (3,061,09)  2.132899E-03  2.837115E-03  1.250951E-01  9.732878E-01
      WRT_HIS   - wrote history  fields (Index=1,2) into time record = 0000206
    206     0 17:10:00  6.685119E-04  7.270474E+04  7.270474E+04  3.834460E+11
            (3,061,09)  2.507739E-03  3.206746E-03  1.431665E-01  1.082732E+00
      WRT_HIS   - wrote history  fields (Index=1,1) into time record = 0000207
    207     0 17:15:00  8.013579E-04  7.270473E+04  7.270474E+04  3.834460E+11
            (3,061,09)  2.954772E-03  3.618582E-03  1.639319E-01  1.202482E+00
      WRT_HIS   - wrote history  fields (Index=1,2) into time record = 0000208
    208     0 17:20:00  9.584692E-04  7.270472E+04  7.270472E+04  3.834460E+11
            (3,061,09)  3.488739E-03  4.072070E-03  1.877165E-01  1.332659E+00
      WRT_HIS   - wrote history  fields (Index=1,1) into time record = 0000209
    209     0 17:25:00  1.143917E-03  7.270471E+04  7.270471E+04  3.834460E+11
            (3,061,09)  4.127703E-03  4.563364E-03  2.148190E-01  1.482640E+00
      WRT_HIS   - wrote history  fields (Index=1,2) into time record = 0000210
    210     0 17:30:00  1.362389E-03  7.270470E+04  7.270470E+04  3.834460E+11
            (3,061,09)  4.894205E-03  5.084233E-03  2.454813E-01  1.669613E+00
      WRT_HIS   - wrote history  fields (Index=1,1) into time record = 0000211
    211     0 17:35:00  1.619200E-03  7.270469E+04  7.270469E+04  3.834460E+11
            (3,061,09)  5.817096E-03  5.620892E-03  2.798483E-01  1.872121E+00
      WRT_HIS   - wrote history  fields (Index=1,2) into time record = 0000212
    212     0 17:40:00  1.920228E-03  7.270469E+04  7.270469E+04  3.834460E+11
            (3,061,09)  6.934493E-03  6.153113E-03  3.179124E-01  2.087921E+00
      WRT_HIS   - wrote history  fields (Index=1,1) into time record = 0000213
    213     0 17:45:00  2.271709E-03  7.270469E+04  7.270469E+04  3.834460E+11
            (3,061,09)  8.298303E-03  6.654318E-03  3.594466E-01  2.313415E+00
      WRT_HIS   - wrote history  fields (Index=1,2) into time record = 0000214
    214     0 17:50:00  2.679849E-03  7.270469E+04  7.270469E+04  3.834460E+11
            (3,061,09)  9.980737E-03  7.093678E-03  4.039314E-01  2.543595E+00
      WRT_HIS   - wrote history  fields (Index=1,1) into time record = 0000215
    215     0 17:55:00  3.150251E-03  7.270469E+04  7.270470E+04  3.834460E+11
            (3,061,09)  1.208264E-02  7.441119E-03  4.504948E-01  2.772188E+00
      WRT_HIS   - wrote history  fields (Index=1,2) into time record = 0000216
    216     0 18:00:00  3.687240E-03  7.270470E+04  7.270470E+04  3.834460E+11
            (3,061,09)  1.474237E-02  7.675087E-03  4.978843E-01  2.992048E+00
      WRT_HIS   - wrote history  fields (Index=1,1) into time record = 0000217
    217     0 18:05:00  4.293214E-03  7.270471E+04  7.270471E+04  3.834460E+11
            (3,061,09)  1.814224E-02  7.790872E-03  5.444947E-01  3.195779E+00
      WRT_HIS   - wrote history  fields (Index=1,2) into time record = 0000218
    218     0 18:10:00  4.968270E-03  7.270472E+04  7.270473E+04  3.834460E+11
            (3,061,09)  2.250743E-02  7.804916E-03  5.884617E-01  3.376511E+00
      WRT_HIS   - wrote history  fields (Index=1,1) into time record = 0000219
    219     0 18:15:00  5.710198E-03  7.270473E+04  7.270474E+04  3.834460E+11
            (3,061,09)  2.809044E-02  7.753316E-03  6.278160E-01  3.528742E+00
      WRT_HIS   - wrote history  fields (Index=1,2) into time record = 0000220
    220     0 18:20:00  6.513282E-03  7.270474E+04  7.270475E+04  3.834460E+11
            (3,061,09)  3.514480E-02  7.664132E-03  6.606512E-01  3.649143E+00
      WRT_HIS   - wrote history  fields (Index=1,1) into time record = 0000221
    221     0 18:25:00  7.367977E-03  7.270475E+04  7.270476E+04  3.834460E+11
            (3,061,09)  4.389185E-02  7.538649E-03  6.853847E-01  3.735944E+00
      WRT_HIS   - wrote history  fields (Index=1,2) into time record = 0000222
    222     0 18:30:00  8.255150E-03  7.270475E+04  7.270476E+04  3.834460E+11
            (3,061,09)  5.428143E-02  7.329578E-03  7.007394E-01  3.787512E+00
      WRT_HIS   - wrote history  fields (Index=1,1) into time record = 0000223
    223     0 18:35:00  9.154749E-03  7.270476E+04  7.270476E+04  3.834460E+11
            (3,061,09)  6.629244E-02  6.959265E-03  7.054490E-01  3.812773E+00
      WRT_HIS   - wrote history  fields (Index=1,2) into time record = 0000224
    224     0 18:40:00  1.003648E-02  7.270475E+04  7.270476E+04  3.834460E+11
            (3,061,09)  7.961996E-02  6.355916E-03  7.000474E-01  3.819030E+00
      WRT_HIS   - wrote history  fields (Index=1,1) into time record = 0000225
    225     0 18:45:00  1.085414E-02  7.270474E+04  7.270476E+04  3.834460E+11
            (3,061,09)  9.424182E-02  5.459971E-03  6.841408E-01  3.816459E+00
      WRT_HIS   - wrote history  fields (Index=1,2) into time record = 0000226
    226     0 18:50:00  1.154624E-02  7.270474E+04  7.270475E+04  3.834460E+11
            (3,061,09)  1.098109E-01  4.242223E-03  6.572565E-01  3.850659E+00
      WRT_HIS   - wrote history  fields (Index=1,1) into time record = 0000227
    227     0 18:55:00  1.204590E-02  7.270472E+04  7.270474E+04  3.834460E+11
            (3,061,09)  1.263127E-01  2.692189E-03  6.198168E-01  3.940148E+00
      WRT_HIS   - wrote history  fields (Index=1,2) into time record = 0000228
    228     0 19:00:00  1.227340E-02  7.270471E+04  7.270473E+04  3.834460E+11
            (3,061,04)  4.263088E-02  1.789763E-02  6.682781E-01  4.007851E+00
      WRT_HIS   - wrote history  fields (Index=1,1) into time record = 0000229
    229     0 19:05:00  1.215290E-02  7.270471E+04  7.270472E+04  3.834460E+11
            (3,061,04)  5.880872E-02  1.736615E-02  6.522806E-01  4.044564E+00
      WRT_HIS   - wrote history  fields (Index=1,2) into time record = 0000230
    230     0 19:10:00  1.166515E-02  7.270470E+04  7.270471E+04  3.834460E+11
            (3,061,04)  7.776125E-02  1.598932E-02  6.072825E-01  4.178400E+00
      WRT_HIS   - wrote history  fields (Index=1,1) into time record = 0000231
    231     0 19:15:00  1.090587E-02  7.270470E+04  7.270471E+04  3.834460E+11
            (3,061,03)  8.270723E-02  1.550382E-02  5.574735E-01  4.342287E+00
      WRT_HIS   - wrote history  fields (Index=1,2) into time record = 0000232
    232     0 19:20:00  1.008957E-02  7.270470E+04  7.270471E+04  3.834460E+11
            (2,061,09)  1.766294E-02  3.261393E-03  7.001363E-01  4.484655E+00
      WRT_HIS   - wrote history  fields (Index=1,1) into time record = 0000233
    233     0 19:25:00  9.583862E-03  7.270470E+04  7.270471E+04  3.834460E+11
            (2,061,09)  1.859995E-02  6.144721E-03  8.186401E-01  4.755077E+00
      WRT_HIS   - wrote history  fields (Index=1,2) into time record = 0000234
    234     0 19:30:00  9.979831E-03  7.270471E+04  7.270472E+04  3.834460E+11
            (2,061,08)  7.559594E-02  1.011811E-02  8.836506E-01  5.330502E+00
      WRT_HIS   - wrote history  fields (Index=1,1) into time record = 0000235
    235     0 19:35:00  1.215336E-02  7.270472E+04  7.270473E+04  3.834460E+11
            (2,061,08)  8.287853E-02  1.257749E-02  9.942540E-01  5.906571E+00
      WRT_HIS   - wrote history  fields (Index=1,2) into time record = 0000236
    236     0 19:40:00  1.617174E-02  7.270473E+04  7.270474E+04  3.834460E+11
            (2,061,09)  1.104012E-01  9.806824E-03  1.102607E+00  6.601269E+00
      WRT_HIS   - wrote history  fields (Index=1,1) into time record = 0000237
    237     0 19:45:00  2.009280E-02  7.270474E+04  7.270476E+04  3.834460E+11
            (2,061,09)  2.241027E-01  1.078863E-02  1.124096E+00  7.629248E+00
      WRT_HIS   - wrote history  fields (Index=1,2) into time record = 0000238
    238     0 19:50:00  1.974365E-02  7.270475E+04  7.270477E+04  3.834460E+11
            (2,061,09)  3.515364E-01  1.115585E-02  1.069904E+00  9.244077E+00
      WRT_HIS   - wrote history  fields (Index=1,1) into time record = 0000239
    239     0 19:55:00  1.390973E-02  7.270476E+04  7.270478E+04  3.834460E+11
            (1,061,09)  2.613525E-01  1.710582E-02  1.137198E+00  1.171953E+01
      WRT_HIS   - wrote history  fields (Index=1,2) into time record = 0000240
    240     0 20:00:00  1.367492E-02  7.270477E+04  7.270478E+04  3.834460E+11
            (3,061,10)  3.573823E-01  5.137690E-03  1.264767E+00  1.459106E+01
      WRT_HIS   - wrote history  fields (Index=1,1) into time record = 0000241
    241     0 20:05:00  2.911417E-02  7.270478E+04  7.270480E+04  3.834460E+11
            (3,061,10)  8.713023E-01  2.469959E-03  1.543822E+00  1.413681E+01
      WRT_HIS   - wrote history  fields (Index=1,2) into time record = 0000242
    242     0 20:10:00  1.089701E-02  7.270478E+04  7.270479E+04  3.834460E+11
            (3,061,09)  7.168400E-01  2.820362E-02  1.585416E+00  2.039729E+01

 Blowing-up: Saving latest model state into  RESTART file

      WRT_RST   - wrote re-start fields (Index=1,1) into time record = 0000001

 Elapsed CPU time (seconds):

 Thread #  0 CPU:       6.123
 Total:                 6.123

 Nonlinear model elapsed time profile:

  Allocation and array initialization ..............         0.002  ( 0.0327 %)
  Reading of input data ............................         0.001  ( 0.0163 %)
  Processing of input data .........................         0.005  ( 0.0817 %)
  Computation of vertical boundary conditions ......         0.031  ( 0.5063 %)
  Computation of global information integrals ......         0.030  ( 0.4900 %)
  Writing of output data ...........................         0.366  ( 5.9775 %)
  Model 2D kernel ..................................         4.067  (66.4217 %)
  2D/3D coupling, vertical metrics .................         0.027  ( 0.4410 %)
  Omega vertical velocity ..........................         0.038  ( 0.6206 %)
  Equation of state for seawater ...................         0.121  ( 1.9762 %)
  KPP vertical mixing parameterization .............         0.046  ( 0.7513 %)
  3D equations right-side terms ....................         0.170  ( 2.7764 %)
  3D equations predictor step ......................         0.246  ( 4.0176 %)
  Pressure gradient ................................         0.087  ( 1.4209 %)
  Harmonic mixing of tracers, geopotentials ........         0.215  ( 3.5114 %)
  Harmonic stress tensor, geopotentials ............         0.297  ( 4.8506 %)
  Corrector time-step for 3D momentum ..............         0.187  ( 3.0541 %)
  Corrector time-step for tracers ..................         0.140  ( 2.2865 %)
                                              Total:         6.076   99.2324

 All percentages are with respect to total time =            6.123

 ROMS/TOMS - Output NetCDF summary for Grid 01:
             number of time records written in HISTORY file = 00000242
             number of time records written in RESTART file = 00000001

 Analytical header files used:

     ROMS/Functionals/ana_btflux.h
     ROMS/Functionals/ana_grid.h
     ROMS/Functionals/ana_initial.h
     ROMS/Functionals/ana_mask.h
     ROMS/Functionals/ana_nudgcoef.h
     ROMS/Functionals/ana_smflux.h
     ROMS/Functionals/ana_stflux.h

 ROMS/TOMS: DONE... Thursday - September 5, 2013 - 10:57:36 PM
